/*---------------------------------------------------------------------------*\
| =========                 |                                                 |
| \\      /  F ield         | OpenFOAM: The Open Source CFD Toolbox           |
|  \\    /   O peration     | Version:  v2012                                 |
|   \\  /    A nd           | Website:  www.openfoam.com                      |
|    \\/     M anipulation  |                                                 |
\*---------------------------------------------------------------------------*/
Build  : _7bdb509494-20201222 OPENFOAM=2012
Arch   : "LSB;label=32;scalar=64"
Exec   : pisoFoam
Date   : Jan 06 2022
Time   : 16:28:40
Host   : ziqipc
PID    : 3024
I/O    : uncollated
Case   : /home/tutle/GitHub_OpenFOAM/thin_pipeflow_snappyHexMesh/pisoFoam_snappy_pipe
nProcs : 1
trapFpe: Floating point exception trapping enabled (FOAM_SIGFPE).
fileModificationChecking : Monitoring run-time modified files using timeStampMaster (fileModificationSkew 5, maxFileModificationPolls 20)
allowSystemOperations : Allowing user-supplied system call operations

// * * * * * * * * * * * * * * * * * * * * * * * * * * * * * * * * * * * * * //
Create time

Create mesh for time = 0


PISO: Operating solver in PISO mode

Reading field p

Reading field U

Reading/calculating face flux field phi

Selecting incompressible transport model Newtonian
Selecting turbulence model type laminar
Selecting laminar stress model Stokes
No MRF models present

No finite volume options present

Starting time loop

Time = 25

Courant Number mean: 0.0377384 max: 0.306206
smoothSolver:  Solving for Ux, Initial residual = 1, Final residual = 1.47727e-06, No Iterations 5
smoothSolver:  Solving for Uy, Initial residual = 1, Final residual = 1.47728e-06, No Iterations 5
smoothSolver:  Solving for Uz, Initial residual = 1, Final residual = 6.71073e-06, No Iterations 3
DICPCG:  Solving for p, Initial residual = 1, Final residual = 0.0454688, No Iterations 445
time step continuity errors : sum local = 1.88413e-07, global = -3.6064e-09, cumulative = -3.6064e-09
DICPCG:  Solving for p, Initial residual = 0.000979958, Final residual = 9.7257e-07, No Iterations 456
time step continuity errors : sum local = 1.40594e-09, global = 2.45709e-11, cumulative = -3.58182e-09
ExecutionTime = 4.5 s  ClockTime = 4 s

Time = 50

Courant Number mean: 0.0377696 max: 0.271755
smoothSolver:  Solving for Ux, Initial residual = 0.319621, Final residual = 9.54643e-07, No Iterations 4
smoothSolver:  Solving for Uy, Initial residual = 0.319619, Final residual = 9.54643e-07, No Iterations 4
smoothSolver:  Solving for Uz, Initial residual = 0.204341, Final residual = 3.76132e-06, No Iterations 2
DICPCG:  Solving for p, Initial residual = 0.00606022, Final residual = 0.000281271, No Iterations 437
time step continuity errors : sum local = 3.9423e-07, global = 8.40743e-09, cumulative = 4.82561e-09
DICPCG:  Solving for p, Initial residual = 0.000721519, Final residual = 8.00814e-07, No Iterations 452
time step continuity errors : sum local = 7.63875e-10, global = 4.53996e-12, cumulative = 4.83015e-09
ExecutionTime = 8.19 s  ClockTime = 8 s

Time = 75

Courant Number mean: 0.0377183 max: 0.27892
smoothSolver:  Solving for Ux, Initial residual = 0.152196, Final residual = 5.2572e-06, No Iterations 3
smoothSolver:  Solving for Uy, Initial residual = 0.152199, Final residual = 5.25724e-06, No Iterations 3
smoothSolver:  Solving for Uz, Initial residual = 0.099645, Final residual = 1.95605e-06, No Iterations 2
DICPCG:  Solving for p, Initial residual = 0.0030268, Final residual = 0.000148821, No Iterations 434
time step continuity errors : sum local = 1.44576e-07, global = 3.22302e-09, cumulative = 8.05316e-09
DICPCG:  Solving for p, Initial residual = 0.000298672, Final residual = 9.4919e-07, No Iterations 449
time step continuity errors : sum local = 8.60491e-10, global = 2.43826e-12, cumulative = 8.0556e-09
ExecutionTime = 11.85 s  ClockTime = 12 s

Time = 100

Courant Number mean: 0.0376689 max: 0.282756
smoothSolver:  Solving for Ux, Initial residual = 0.103241, Final residual = 2.96336e-06, No Iterations 3
smoothSolver:  Solving for Uy, Initial residual = 0.103236, Final residual = 2.96335e-06, No Iterations 3
smoothSolver:  Solving for Uz, Initial residual = 0.0675929, Final residual = 1.2565e-06, No Iterations 2
DICPCG:  Solving for p, Initial residual = 0.00202728, Final residual = 8.7552e-05, No Iterations 436
time step continuity errors : sum local = 7.97408e-08, global = 1.70084e-09, cumulative = 9.75645e-09
DICPCG:  Solving for p, Initial residual = 0.000177739, Final residual = 9.65789e-07, No Iterations 446
time step continuity errors : sum local = 8.25122e-10, global = -6.3521e-12, cumulative = 9.75009e-09
ExecutionTime = 15.57 s  ClockTime = 15 s

Time = 125

Courant Number mean: 0.0376223 max: 0.284886
smoothSolver:  Solving for Ux, Initial residual = 0.0757556, Final residual = 1.88472e-06, No Iterations 3
smoothSolver:  Solving for Uy, Initial residual = 0.0757552, Final residual = 1.8847e-06, No Iterations 3
smoothSolver:  Solving for Uz, Initial residual = 0.0506926, Final residual = 8.99516e-07, No Iterations 2
DICPCG:  Solving for p, Initial residual = 0.000885946, Final residual = 3.58234e-05, No Iterations 439
time step continuity errors : sum local = 3.07067e-08, global = 5.99961e-10, cumulative = 1.03501e-08
DICPCG:  Solving for p, Initial residual = 9.9202e-05, Final residual = 9.71064e-07, No Iterations 447
time step continuity errors : sum local = 7.83705e-10, global = -5.3179e-12, cumulative = 1.03447e-08
ExecutionTime = 19.32 s  ClockTime = 19 s

Time = 150

Courant Number mean: 0.0375781 max: 0.28609
smoothSolver:  Solving for Ux, Initial residual = 0.0587292, Final residual = 1.28502e-06, No Iterations 3
smoothSolver:  Solving for Uy, Initial residual = 0.0587275, Final residual = 1.28502e-06, No Iterations 3
smoothSolver:  Solving for Uz, Initial residual = 0.0402864, Final residual = 6.83304e-07, No Iterations 2
DICPCG:  Solving for p, Initial residual = 0.000521988, Final residual = 2.21468e-05, No Iterations 440
time step continuity errors : sum local = 1.79222e-08, global = 3.51352e-10, cumulative = 1.06961e-08
DICPCG:  Solving for p, Initial residual = 7.12994e-05, Final residual = 9.54468e-07, No Iterations 446
time step continuity errors : sum local = 7.30252e-10, global = -1.13217e-11, cumulative = 1.06848e-08
ExecutionTime = 23.06 s  ClockTime = 23 s

Time = 175

Courant Number mean: 0.037536 max: 0.286804
smoothSolver:  Solving for Ux, Initial residual = 0.047164, Final residual = 9.18786e-07, No Iterations 3
smoothSolver:  Solving for Uy, Initial residual = 0.0471621, Final residual = 9.18788e-07, No Iterations 3
smoothSolver:  Solving for Uz, Initial residual = 0.0334188, Final residual = 5.39651e-07, No Iterations 2
DICPCG:  Solving for p, Initial residual = 0.000529566, Final residual = 2.39214e-05, No Iterations 439
time step continuity errors : sum local = 1.83435e-08, global = 3.74611e-10, cumulative = 1.10594e-08
DICPCG:  Solving for p, Initial residual = 6.29011e-05, Final residual = 9.48255e-07, No Iterations 445
time step continuity errors : sum local = 6.9023e-10, global = -8.63908e-12, cumulative = 1.10507e-08
ExecutionTime = 26.7 s  ClockTime = 26 s

Time = 200

Courant Number mean: 0.0374957 max: 0.287243
smoothSolver:  Solving for Ux, Initial residual = 0.0388208, Final residual = 8.00531e-06, No Iterations 2
smoothSolver:  Solving for Uy, Initial residual = 0.0388196, Final residual = 8.00537e-06, No Iterations 2
smoothSolver:  Solving for Uz, Initial residual = 0.0284442, Final residual = 4.38716e-07, No Iterations 2
DICPCG:  Solving for p, Initial residual = 0.000564806, Final residual = 2.64137e-05, No Iterations 438
time step continuity errors : sum local = 1.92641e-08, global = 4.03934e-10, cumulative = 1.14547e-08
DICPCG:  Solving for p, Initial residual = 5.73878e-05, Final residual = 9.44214e-07, No Iterations 444
time step continuity errors : sum local = 6.56198e-10, global = -8.57887e-12, cumulative = 1.14461e-08
ExecutionTime = 30.43 s  ClockTime = 31 s

Time = 225

Courant Number mean: 0.0374571 max: 0.287522
smoothSolver:  Solving for Ux, Initial residual = 0.0325446, Final residual = 6.26959e-06, No Iterations 2
smoothSolver:  Solving for Uy, Initial residual = 0.0325437, Final residual = 6.26967e-06, No Iterations 2
smoothSolver:  Solving for Uz, Initial residual = 0.0246811, Final residual = 3.64608e-07, No Iterations 2
DICPCG:  Solving for p, Initial residual = 0.000585767, Final residual = 2.8525e-05, No Iterations 437
time step continuity errors : sum local = 1.98582e-08, global = 4.21903e-10, cumulative = 1.1868e-08
DICPCG:  Solving for p, Initial residual = 5.48418e-05, Final residual = 9.62035e-07, No Iterations 443
time step continuity errors : sum local = 6.40502e-10, global = -6.47138e-12, cumulative = 1.18615e-08
ExecutionTime = 34.15 s  ClockTime = 35 s

Time = 250

Courant Number mean: 0.03742 max: 0.287704
smoothSolver:  Solving for Ux, Initial residual = 0.027669, Final residual = 5.07101e-06, No Iterations 2
smoothSolver:  Solving for Uy, Initial residual = 0.0276687, Final residual = 5.07108e-06, No Iterations 2
smoothSolver:  Solving for Uz, Initial residual = 0.0217417, Final residual = 3.083e-07, No Iterations 2
DICPCG:  Solving for p, Initial residual = 0.000584822, Final residual = 2.5374e-05, No Iterations 437
time step continuity errors : sum local = 1.69194e-08, global = 3.55906e-10, cumulative = 1.22174e-08
DICPCG:  Solving for p, Initial residual = 4.82556e-05, Final residual = 7.83871e-07, No Iterations 443
time step continuity errors : sum local = 5.01545e-10, global = -7.12333e-12, cumulative = 1.22103e-08
ExecutionTime = 37.92 s  ClockTime = 38 s

Time = 275

Courant Number mean: 0.0373842 max: 0.287825
smoothSolver:  Solving for Ux, Initial residual = 0.0237929, Final residual = 4.19675e-06, No Iterations 2
smoothSolver:  Solving for Uy, Initial residual = 0.0237931, Final residual = 4.19684e-06, No Iterations 2
smoothSolver:  Solving for Uz, Initial residual = 0.0193871, Final residual = 2.64388e-07, No Iterations 2
DICPCG:  Solving for p, Initial residual = 0.000574311, Final residual = 2.87049e-05, No Iterations 436
time step continuity errors : sum local = 1.83916e-08, global = 3.95176e-10, cumulative = 1.26055e-08
DICPCG:  Solving for p, Initial residual = 4.84734e-05, Final residual = 9.05646e-07, No Iterations 442
time step continuity errors : sum local = 5.58504e-10, global = -1.09006e-11, cumulative = 1.25946e-08
ExecutionTime = 41.54 s  ClockTime = 42 s

Time = 300

Courant Number mean: 0.0373496 max: 0.287907
smoothSolver:  Solving for Ux, Initial residual = 0.0206501, Final residual = 3.54077e-06, No Iterations 2
smoothSolver:  Solving for Uy, Initial residual = 0.0206502, Final residual = 3.54085e-06, No Iterations 2
smoothSolver:  Solving for Uz, Initial residual = 0.017462, Final residual = 2.29456e-07, No Iterations 2
DICPCG:  Solving for p, Initial residual = 0.000559409, Final residual = 2.41909e-05, No Iterations 436
time step continuity errors : sum local = 1.4937e-08, global = 3.33121e-10, cumulative = 1.29277e-08
DICPCG:  Solving for p, Initial residual = 4.21868e-05, Final residual = 8.80376e-07, No Iterations 442
time step continuity errors : sum local = 5.24692e-10, global = -9.32895e-12, cumulative = 1.29184e-08
ExecutionTime = 45.26 s  ClockTime = 46 s

Time = 325

Courant Number mean: 0.037316 max: 0.287964
smoothSolver:  Solving for Ux, Initial residual = 0.0180592, Final residual = 3.03425e-06, No Iterations 2
smoothSolver:  Solving for Uy, Initial residual = 0.0180593, Final residual = 3.03433e-06, No Iterations 2
smoothSolver:  Solving for Uz, Initial residual = 0.0159003, Final residual = 2.0118e-07, No Iterations 2
DICPCG:  Solving for p, Initial residual = 0.000538581, Final residual = 2.25466e-05, No Iterations 436
time step continuity errors : sum local = 1.34528e-08, global = 2.89976e-10, cumulative = 1.32084e-08
DICPCG:  Solving for p, Initial residual = 3.85758e-05, Final residual = 7.38783e-07, No Iterations 442
time step continuity errors : sum local = 4.26565e-10, global = -6.73416e-12, cumulative = 1.32016e-08
ExecutionTime = 48.86 s  ClockTime = 49 s

Time = 350

Courant Number mean: 0.0372834 max: 0.288003
smoothSolver:  Solving for Ux, Initial residual = 0.0158984, Final residual = 2.63327e-06, No Iterations 2
smoothSolver:  Solving for Uy, Initial residual = 0.0158984, Final residual = 2.63336e-06, No Iterations 2
smoothSolver:  Solving for Uz, Initial residual = 0.0145964, Final residual = 1.77902e-07, No Iterations 2
DICPCG:  Solving for p, Initial residual = 0.00051989, Final residual = 2.11462e-05, No Iterations 436
time step continuity errors : sum local = 1.22224e-08, global = 2.60199e-10, cumulative = 1.34618e-08
DICPCG:  Solving for p, Initial residual = 3.57692e-05, Final residual = 8.94258e-07, No Iterations 441
time step continuity errors : sum local = 5.01341e-10, global = -6.76246e-12, cumulative = 1.34551e-08
ExecutionTime = 52.48 s  ClockTime = 53 s

Time = 375

Courant Number mean: 0.0372516 max: 0.288031
smoothSolver:  Solving for Ux, Initial residual = 0.0140769, Final residual = 2.30863e-06, No Iterations 2
smoothSolver:  Solving for Uy, Initial residual = 0.0140768, Final residual = 2.30867e-06, No Iterations 2
smoothSolver:  Solving for Uz, Initial residual = 0.0134818, Final residual = 9.63632e-06, No Iterations 1
DICPCG:  Solving for p, Initial residual = 0.000502758, Final residual = 1.97848e-05, No Iterations 434
time step continuity errors : sum local = 1.11025e-08, global = 2.17577e-10, cumulative = 1.36726e-08
DICPCG:  Solving for p, Initial residual = 4.49783e-05, Final residual = 9.93275e-07, No Iterations 424
time step continuity errors : sum local = 5.41691e-10, global = -1.2937e-11, cumulative = 1.36597e-08
ExecutionTime = 55.99 s  ClockTime = 56 s

Time = 400

Courant Number mean: 0.0372205 max: 0.288051
smoothSolver:  Solving for Ux, Initial residual = 0.0125221, Final residual = 2.04594e-06, No Iterations 2
smoothSolver:  Solving for Uy, Initial residual = 0.012522, Final residual = 2.04602e-06, No Iterations 2
smoothSolver:  Solving for Uz, Initial residual = 0.0125185, Final residual = 8.85489e-06, No Iterations 1
DICPCG:  Solving for p, Initial residual = 0.000480049, Final residual = 2.3666e-05, No Iterations 433
time step continuity errors : sum local = 1.29194e-08, global = 2.37669e-10, cumulative = 1.38974e-08
DICPCG:  Solving for p, Initial residual = 4.59306e-05, Final residual = 7.99557e-07, No Iterations 444
time step continuity errors : sum local = 4.25017e-10, global = 5.19035e-12, cumulative = 1.39026e-08
ExecutionTime = 59.57 s  ClockTime = 60 s

Time = 425

Courant Number mean: 0.0371902 max: 0.288634
smoothSolver:  Solving for Ux, Initial residual = 0.0111848, Final residual = 1.82351e-06, No Iterations 2
smoothSolver:  Solving for Uy, Initial residual = 0.0111847, Final residual = 1.82357e-06, No Iterations 2
smoothSolver:  Solving for Uz, Initial residual = 0.0116985, Final residual = 8.18306e-06, No Iterations 1
DICPCG:  Solving for p, Initial residual = 0.000458354, Final residual = 2.14328e-05, No Iterations 433
time step continuity errors : sum local = 1.14036e-08, global = 2.24594e-10, cumulative = 1.41271e-08
DICPCG:  Solving for p, Initial residual = 4.22681e-05, Final residual = 9.25157e-07, No Iterations 422
time step continuity errors : sum local = 4.8012e-10, global = -1.11643e-11, cumulative = 1.4116e-08
ExecutionTime = 63.09 s  ClockTime = 64 s

Time = 450

Courant Number mean: 0.0371606 max: 0.28944
smoothSolver:  Solving for Ux, Initial residual = 0.0100247, Final residual = 1.63475e-06, No Iterations 2
smoothSolver:  Solving for Uy, Initial residual = 0.0100246, Final residual = 1.6348e-06, No Iterations 2
smoothSolver:  Solving for Uz, Initial residual = 0.011013, Final residual = 7.60712e-06, No Iterations 1
DICPCG:  Solving for p, Initial residual = 0.000437422, Final residual = 1.73593e-05, No Iterations 434
time step continuity errors : sum local = 9.01665e-09, global = 1.72329e-10, cumulative = 1.42883e-08
DICPCG:  Solving for p, Initial residual = 3.74715e-05, Final residual = 9.78566e-07, No Iterations 422
time step continuity errors : sum local = 4.96537e-10, global = -1.06846e-11, cumulative = 1.42776e-08
ExecutionTime = 66.58 s  ClockTime = 67 s

Time = 475

Courant Number mean: 0.0371315 max: 0.29012
smoothSolver:  Solving for Ux, Initial residual = 0.00901688, Final residual = 1.47401e-06, No Iterations 2
smoothSolver:  Solving for Uy, Initial residual = 0.00901689, Final residual = 1.47403e-06, No Iterations 2
smoothSolver:  Solving for Uz, Initial residual = 0.0104045, Final residual = 7.1056e-06, No Iterations 1
DICPCG:  Solving for p, Initial residual = 0.000417749, Final residual = 2.0454e-05, No Iterations 433
time step continuity errors : sum local = 1.03871e-08, global = 1.93838e-10, cumulative = 1.44715e-08
DICPCG:  Solving for p, Initial residual = 3.88787e-05, Final residual = 9.7328e-07, No Iterations 421
time step continuity errors : sum local = 4.83503e-10, global = -7.50645e-12, cumulative = 1.4464e-08
ExecutionTime = 70.06 s  ClockTime = 71 s

Time = 500

Courant Number mean: 0.0371029 max: 0.290696
smoothSolver:  Solving for Ux, Initial residual = 0.00813923, Final residual = 1.33465e-06, No Iterations 2
smoothSolver:  Solving for Uy, Initial residual = 0.00813917, Final residual = 1.33469e-06, No Iterations 2
smoothSolver:  Solving for Uz, Initial residual = 0.00985801, Final residual = 6.66446e-06, No Iterations 1
DICPCG:  Solving for p, Initial residual = 0.00039779, Final residual = 1.94157e-05, No Iterations 433
time step continuity errors : sum local = 9.65274e-09, global = 1.80657e-10, cumulative = 1.46446e-08
DICPCG:  Solving for p, Initial residual = 3.68769e-05, Final residual = 9.04376e-07, No Iterations 422
time step continuity errors : sum local = 4.40391e-10, global = -1.0216e-13, cumulative = 1.46445e-08
ExecutionTime = 73.57 s  ClockTime = 74 s

Time = 525

Courant Number mean: 0.0370749 max: 0.291185
smoothSolver:  Solving for Ux, Initial residual = 0.00736885, Final residual = 1.21421e-06, No Iterations 2
smoothSolver:  Solving for Uy, Initial residual = 0.00736882, Final residual = 1.21424e-06, No Iterations 2
smoothSolver:  Solving for Uz, Initial residual = 0.00937611, Final residual = 6.27347e-06, No Iterations 1
DICPCG:  Solving for p, Initial residual = 0.000379266, Final residual = 1.83847e-05, No Iterations 433
time step continuity errors : sum local = 8.95902e-09, global = 1.68953e-10, cumulative = 1.48135e-08
DICPCG:  Solving for p, Initial residual = 3.49631e-05, Final residual = 9.3964e-07, No Iterations 424
time step continuity errors : sum local = 4.48996e-10, global = 5.9105e-12, cumulative = 1.48194e-08
ExecutionTime = 77.1 s  ClockTime = 78 s

Time = 550

Courant Number mean: 0.0370473 max: 0.291601
smoothSolver:  Solving for Ux, Initial residual = 0.00668455, Final residual = 1.10817e-06, No Iterations 2
smoothSolver:  Solving for Uy, Initial residual = 0.00668442, Final residual = 1.10819e-06, No Iterations 2
smoothSolver:  Solving for Uz, Initial residual = 0.00894501, Final residual = 5.92764e-06, No Iterations 1
DICPCG:  Solving for p, Initial residual = 0.000361895, Final residual = 1.80947e-05, No Iterations 433
time step continuity errors : sum local = 8.65231e-09, global = 1.75292e-10, cumulative = 1.49947e-08
DICPCG:  Solving for p, Initial residual = 3.37847e-05, Final residual = 9.59688e-07, No Iterations 425
time step continuity errors : sum local = 4.50439e-10, global = 7.24439e-12, cumulative = 1.50019e-08
ExecutionTime = 80.62 s  ClockTime = 81 s

Time = 575

Courant Number mean: 0.0370202 max: 0.291955
smoothSolver:  Solving for Ux, Initial residual = 0.00607658, Final residual = 1.01546e-06, No Iterations 2
smoothSolver:  Solving for Uy, Initial residual = 0.0060766, Final residual = 1.01549e-06, No Iterations 2
smoothSolver:  Solving for Uz, Initial residual = 0.00855262, Final residual = 5.61942e-06, No Iterations 1
DICPCG:  Solving for p, Initial residual = 0.000345982, Final residual = 1.64684e-05, No Iterations 433
time step continuity errors : sum local = 7.7346e-09, global = 1.44065e-10, cumulative = 1.5146e-08
DICPCG:  Solving for p, Initial residual = 3.14754e-05, Final residual = 8.9406e-07, No Iterations 444
time step continuity errors : sum local = 4.12545e-10, global = 5.17696e-12, cumulative = 1.51512e-08
ExecutionTime = 84.21 s  ClockTime = 85 s

Time = 600

Courant Number mean: 0.0369935 max: 0.292258
smoothSolver:  Solving for Ux, Initial residual = 0.00553079, Final residual = 9.33505e-07, No Iterations 2
smoothSolver:  Solving for Uy, Initial residual = 0.00553066, Final residual = 9.33516e-07, No Iterations 2
smoothSolver:  Solving for Uz, Initial residual = 0.00819363, Final residual = 5.34242e-06, No Iterations 1
DICPCG:  Solving for p, Initial residual = 0.00033076, Final residual = 1.40605e-05, No Iterations 433
time step continuity errors : sum local = 6.49201e-09, global = 1.19025e-10, cumulative = 1.52702e-08
DICPCG:  Solving for p, Initial residual = 2.86548e-05, Final residual = 9.92383e-07, No Iterations 424
time step continuity errors : sum local = 4.50541e-10, global = 4.1004e-12, cumulative = 1.52743e-08
ExecutionTime = 87.73 s  ClockTime = 88 s

Time = 625

Courant Number mean: 0.0369672 max: 0.292517
smoothSolver:  Solving for Ux, Initial residual = 0.00504148, Final residual = 8.60336e-07, No Iterations 2
smoothSolver:  Solving for Uy, Initial residual = 0.00504154, Final residual = 8.60375e-07, No Iterations 2
smoothSolver:  Solving for Uz, Initial residual = 0.00786363, Final residual = 5.09151e-06, No Iterations 1
DICPCG:  Solving for p, Initial residual = 0.000316308, Final residual = 1.46889e-05, No Iterations 433
time step continuity errors : sum local = 6.67269e-09, global = 1.27953e-10, cumulative = 1.54022e-08
DICPCG:  Solving for p, Initial residual = 2.84152e-05, Final residual = 8.89195e-07, No Iterations 444
time step continuity errors : sum local = 3.97482e-10, global = 4.49977e-12, cumulative = 1.54067e-08
ExecutionTime = 91.32 s  ClockTime = 92 s

Time = 650

Courant Number mean: 0.0369413 max: 0.292738
smoothSolver:  Solving for Ux, Initial residual = 0.00463419, Final residual = 7.94925e-07, No Iterations 2
smoothSolver:  Solving for Uy, Initial residual = 0.00463406, Final residual = 7.94911e-07, No Iterations 2
smoothSolver:  Solving for Uz, Initial residual = 0.00755903, Final residual = 4.86332e-06, No Iterations 1
DICPCG:  Solving for p, Initial residual = 0.000303648, Final residual = 1.51632e-05, No Iterations 432
time step continuity errors : sum local = 6.78204e-09, global = 1.3365e-10, cumulative = 1.55404e-08
DICPCG:  Solving for p, Initial residual = 2.83304e-05, Final residual = 9.38987e-07, No Iterations 424
time step continuity errors : sum local = 4.13553e-10, global = 2.10912e-12, cumulative = 1.55425e-08
ExecutionTime = 94.83 s  ClockTime = 95 s

Time = 675

Courant Number mean: 0.0369157 max: 0.292928
smoothSolver:  Solving for Ux, Initial residual = 0.00435196, Final residual = 7.36366e-07, No Iterations 2
smoothSolver:  Solving for Uy, Initial residual = 0.00435197, Final residual = 7.36399e-07, No Iterations 2
smoothSolver:  Solving for Uz, Initial residual = 0.00727672, Final residual = 4.65599e-06, No Iterations 1
DICPCG:  Solving for p, Initial residual = 0.000290751, Final residual = 1.31574e-05, No Iterations 433
time step continuity errors : sum local = 5.79797e-09, global = 1.05883e-10, cumulative = 1.56484e-08
DICPCG:  Solving for p, Initial residual = 2.58535e-05, Final residual = 8.53237e-07, No Iterations 444
time step continuity errors : sum local = 3.70473e-10, global = 3.7336e-12, cumulative = 1.56521e-08
ExecutionTime = 98.4 s  ClockTime = 99 s

Time = 700

Courant Number mean: 0.0368904 max: 0.293091
smoothSolver:  Solving for Ux, Initial residual = 0.00413592, Final residual = 6.83087e-07, No Iterations 2
smoothSolver:  Solving for Uy, Initial residual = 0.0041359, Final residual = 6.83093e-07, No Iterations 2
smoothSolver:  Solving for Uz, Initial residual = 0.00701419, Final residual = 4.46552e-06, No Iterations 1
DICPCG:  Solving for p, Initial residual = 0.000280158, Final residual = 1.3429e-05, No Iterations 432
time step continuity errors : sum local = 5.8339e-09, global = 1.09822e-10, cumulative = 1.57619e-08
DICPCG:  Solving for p, Initial residual = 2.56751e-05, Final residual = 9.25755e-07, No Iterations 423
time step continuity errors : sum local = 3.96491e-10, global = 7.64205e-14, cumulative = 1.5762e-08
ExecutionTime = 101.9 s  ClockTime = 102 s

Time = 725

Courant Number mean: 0.0368655 max: 0.293231
smoothSolver:  Solving for Ux, Initial residual = 0.00396105, Final residual = 6.35502e-07, No Iterations 2
smoothSolver:  Solving for Uy, Initial residual = 0.00396101, Final residual = 6.35506e-07, No Iterations 2
smoothSolver:  Solving for Uz, Initial residual = 0.00676919, Final residual = 4.2894e-06, No Iterations 1
DICPCG:  Solving for p, Initial residual = 0.000269681, Final residual = 1.20524e-05, No Iterations 433
time step continuity errors : sum local = 5.16451e-09, global = 7.38655e-11, cumulative = 1.58359e-08
DICPCG:  Solving for p, Initial residual = 2.39029e-05, Final residual = 8.80922e-07, No Iterations 444
time step continuity errors : sum local = 3.72346e-10, global = 2.8434e-12, cumulative = 1.58387e-08
ExecutionTime = 105.52 s  ClockTime = 106 s

Time = 750

Courant Number mean: 0.0368408 max: 0.293351
smoothSolver:  Solving for Ux, Initial residual = 0.00392626, Final residual = 5.92606e-07, No Iterations 2
smoothSolver:  Solving for Uy, Initial residual = 0.0039262, Final residual = 5.92586e-07, No Iterations 2
smoothSolver:  Solving for Uz, Initial residual = 0.00653993, Final residual = 4.12608e-06, No Iterations 1
DICPCG:  Solving for p, Initial residual = 0.000260189, Final residual = 1.22833e-05, No Iterations 432
time step continuity errors : sum local = 5.1944e-09, global = 7.94457e-11, cumulative = 1.59182e-08
DICPCG:  Solving for p, Initial residual = 2.36668e-05, Final residual = 9.87072e-07, No Iterations 420
time step continuity errors : sum local = 4.1193e-10, global = -5.64238e-12, cumulative = 1.59125e-08
ExecutionTime = 108.99 s  ClockTime = 109 s

Time = 775

Courant Number mean: 0.0368165 max: 0.293455
smoothSolver:  Solving for Ux, Initial residual = 0.00392694, Final residual = 5.53438e-07, No Iterations 2
smoothSolver:  Solving for Uy, Initial residual = 0.00392687, Final residual = 5.53454e-07, No Iterations 2
smoothSolver:  Solving for Uz, Initial residual = 0.00632216, Final residual = 3.9728e-06, No Iterations 1
DICPCG:  Solving for p, Initial residual = 0.000250158, Final residual = 1.00081e-05, No Iterations 433
time step continuity errors : sum local = 4.17858e-09, global = 4.61354e-11, cumulative = 1.59587e-08
DICPCG:  Solving for p, Initial residual = 2.12632e-05, Final residual = 9.93407e-07, No Iterations 423
time step continuity errors : sum local = 4.09506e-10, global = -5.71504e-12, cumulative = 1.59529e-08
ExecutionTime = 112.49 s  ClockTime = 113 s

Time = 800

Courant Number mean: 0.0367924 max: 0.293544
smoothSolver:  Solving for Ux, Initial residual = 0.0039185, Final residual = 5.17757e-07, No Iterations 2
smoothSolver:  Solving for Uy, Initial residual = 0.00391835, Final residual = 5.17761e-07, No Iterations 2
smoothSolver:  Solving for Uz, Initial residual = 0.00611535, Final residual = 3.82939e-06, No Iterations 1
DICPCG:  Solving for p, Initial residual = 0.000242413, Final residual = 1.12874e-05, No Iterations 432
time step continuity errors : sum local = 4.65502e-09, global = 7.25589e-11, cumulative = 1.60255e-08
DICPCG:  Solving for p, Initial residual = 2.19864e-05, Final residual = 9.68106e-07, No Iterations 421
time step continuity errors : sum local = 3.94351e-10, global = -5.97479e-12, cumulative = 1.60195e-08
ExecutionTime = 115.98 s  ClockTime = 116 s

Time = 825

Courant Number mean: 0.0367686 max: 0.293621
smoothSolver:  Solving for Ux, Initial residual = 0.00390531, Final residual = 4.85573e-07, No Iterations 2
smoothSolver:  Solving for Uy, Initial residual = 0.00390519, Final residual = 4.85574e-07, No Iterations 2
smoothSolver:  Solving for Uz, Initial residual = 0.00591837, Final residual = 3.69419e-06, No Iterations 1
DICPCG:  Solving for p, Initial residual = 0.000235082, Final residual = 1.12001e-05, No Iterations 432
time step continuity errors : sum local = 4.56426e-09, global = 7.24674e-11, cumulative = 1.6092e-08
DICPCG:  Solving for p, Initial residual = 2.1595e-05, Final residual = 9.98317e-07, No Iterations 420
time step continuity errors : sum local = 4.01988e-10, global = -6.03747e-12, cumulative = 1.6086e-08
ExecutionTime = 119.47 s  ClockTime = 120 s

Time = 850

Courant Number mean: 0.036745 max: 0.293687
smoothSolver:  Solving for Ux, Initial residual = 0.0038849, Final residual = 4.56033e-07, No Iterations 2
smoothSolver:  Solving for Uy, Initial residual = 0.00388482, Final residual = 4.56038e-07, No Iterations 2
smoothSolver:  Solving for Uz, Initial residual = 0.00573243, Final residual = 3.56764e-06, No Iterations 1
DICPCG:  Solving for p, Initial residual = 0.000230354, Final residual = 9.92443e-06, No Iterations 432
time step continuity errors : sum local = 3.99791e-09, global = 6.01936e-11, cumulative = 1.61461e-08
DICPCG:  Solving for p, Initial residual = 2.01345e-05, Final residual = 9.87124e-07, No Iterations 419
time step continuity errors : sum local = 3.93049e-10, global = -7.45992e-12, cumulative = 1.61387e-08
ExecutionTime = 122.96 s  ClockTime = 123 s

Time = 875

Courant Number mean: 0.0367217 max: 0.293744
smoothSolver:  Solving for Ux, Initial residual = 0.00386462, Final residual = 4.29162e-07, No Iterations 2
smoothSolver:  Solving for Uy, Initial residual = 0.00386445, Final residual = 4.29165e-07, No Iterations 2
smoothSolver:  Solving for Uz, Initial residual = 0.00555656, Final residual = 3.44915e-06, No Iterations 1
DICPCG:  Solving for p, Initial residual = 0.000222146, Final residual = 9.50553e-06, No Iterations 432
time step continuity errors : sum local = 3.78642e-09, global = 4.03715e-11, cumulative = 1.61791e-08
DICPCG:  Solving for p, Initial residual = 1.94767e-05, Final residual = 9.6862e-07, No Iterations 418
time step continuity errors : sum local = 3.81504e-10, global = -8.06914e-12, cumulative = 1.6171e-08
ExecutionTime = 126.42 s  ClockTime = 127 s

Time = 900

Courant Number mean: 0.0366987 max: 0.293794
smoothSolver:  Solving for Ux, Initial residual = 0.00383552, Final residual = 4.04021e-07, No Iterations 2
smoothSolver:  Solving for Uy, Initial residual = 0.00383543, Final residual = 4.04023e-07, No Iterations 2
smoothSolver:  Solving for Uz, Initial residual = 0.00538993, Final residual = 3.33801e-06, No Iterations 1
DICPCG:  Solving for p, Initial residual = 0.000215169, Final residual = 9.33324e-06, No Iterations 432
time step continuity errors : sum local = 3.67748e-09, global = 4.07698e-11, cumulative = 1.62118e-08
DICPCG:  Solving for p, Initial residual = 1.89851e-05, Final residual = 9.74983e-07, No Iterations 418
time step continuity errors : sum local = 3.79962e-10, global = -7.67801e-12, cumulative = 1.62041e-08
ExecutionTime = 129.91 s  ClockTime = 130 s

Time = 925

Courant Number mean: 0.0366758 max: 0.293836
smoothSolver:  Solving for Ux, Initial residual = 0.0038053, Final residual = 9.75714e-06, No Iterations 1
smoothSolver:  Solving for Uy, Initial residual = 0.0038052, Final residual = 9.75687e-06, No Iterations 1
smoothSolver:  Solving for Uz, Initial residual = 0.00523178, Final residual = 3.23344e-06, No Iterations 1
DICPCG:  Solving for p, Initial residual = 0.000207844, Final residual = 8.43482e-06, No Iterations 432
time step continuity errors : sum local = 3.28842e-09, global = 3.89473e-11, cumulative = 1.6243e-08
DICPCG:  Solving for p, Initial residual = 1.8316e-05, Final residual = 9.70746e-07, No Iterations 417
time step continuity errors : sum local = 3.74429e-10, global = -8.74772e-12, cumulative = 1.62343e-08
ExecutionTime = 133.38 s  ClockTime = 134 s

Time = 950

Courant Number mean: 0.0366532 max: 0.293873
smoothSolver:  Solving for Ux, Initial residual = 0.00377093, Final residual = 9.36968e-06, No Iterations 1
smoothSolver:  Solving for Uy, Initial residual = 0.00377084, Final residual = 9.3694e-06, No Iterations 1
smoothSolver:  Solving for Uz, Initial residual = 0.00508458, Final residual = 3.135e-06, No Iterations 1
DICPCG:  Solving for p, Initial residual = 0.000203058, Final residual = 9.37841e-06, No Iterations 431
time step continuity errors : sum local = 3.61874e-09, global = 2.89714e-11, cumulative = 1.62633e-08
DICPCG:  Solving for p, Initial residual = 1.88254e-05, Final residual = 9.45829e-07, No Iterations 416
time step continuity errors : sum local = 3.61169e-10, global = -9.34352e-12, cumulative = 1.62539e-08
ExecutionTime = 136.83 s  ClockTime = 137 s

Time = 975

Courant Number mean: 0.0366309 max: 0.293906
smoothSolver:  Solving for Ux, Initial residual = 0.00373526, Final residual = 9.00335e-06, No Iterations 1
smoothSolver:  Solving for Uy, Initial residual = 0.00373514, Final residual = 9.003e-06, No Iterations 1
smoothSolver:  Solving for Uz, Initial residual = 0.00494761, Final residual = 3.04239e-06, No Iterations 1
DICPCG:  Solving for p, Initial residual = 0.000199292, Final residual = 8.96404e-06, No Iterations 431
time step continuity errors : sum local = 3.42423e-09, global = 1.95736e-11, cumulative = 1.62735e-08
DICPCG:  Solving for p, Initial residual = 1.82416e-05, Final residual = 9.8468e-07, No Iterations 414
time step continuity errors : sum local = 3.72337e-10, global = -9.52081e-12, cumulative = 1.6264e-08
ExecutionTime = 140.29 s  ClockTime = 141 s

Time = 1000

Courant Number mean: 0.0366087 max: 0.293933
smoothSolver:  Solving for Ux, Initial residual = 0.00369932, Final residual = 8.65563e-06, No Iterations 1
smoothSolver:  Solving for Uy, Initial residual = 0.00369925, Final residual = 8.65533e-06, No Iterations 1
smoothSolver:  Solving for Uz, Initial residual = 0.004817, Final residual = 2.95463e-06, No Iterations 1
DICPCG:  Solving for p, Initial residual = 0.00019572, Final residual = 9.0315e-06, No Iterations 431
time step continuity errors : sum local = 3.41631e-09, global = 2.26921e-11, cumulative = 1.62867e-08
DICPCG:  Solving for p, Initial residual = 1.80806e-05, Final residual = 9.74198e-07, No Iterations 416
time step continuity errors : sum local = 3.64866e-10, global = -8.0891e-12, cumulative = 1.62786e-08
ExecutionTime = 143.76 s  ClockTime = 144 s

Time = 1025

Courant Number mean: 0.0365867 max: 0.293957
smoothSolver:  Solving for Ux, Initial residual = 0.00366131, Final residual = 8.33586e-06, No Iterations 1
smoothSolver:  Solving for Uy, Initial residual = 0.00366126, Final residual = 8.33574e-06, No Iterations 1
smoothSolver:  Solving for Uz, Initial residual = 0.00469431, Final residual = 2.87172e-06, No Iterations 1
DICPCG:  Solving for p, Initial residual = 0.000192104, Final residual = 8.02938e-06, No Iterations 431
time step continuity errors : sum local = 3.00829e-09, global = 2.03015e-11, cumulative = 1.62989e-08
DICPCG:  Solving for p, Initial residual = 1.70356e-05, Final residual = 9.12085e-07, No Iterations 416
time step continuity errors : sum local = 3.38424e-10, global = -7.60898e-12, cumulative = 1.62913e-08
ExecutionTime = 147.24 s  ClockTime = 148 s

Time = 1050

Courant Number mean: 0.036565 max: 0.293978
smoothSolver:  Solving for Ux, Initial residual = 0.00362275, Final residual = 8.03694e-06, No Iterations 1
smoothSolver:  Solving for Uy, Initial residual = 0.00362267, Final residual = 8.03672e-06, No Iterations 1
smoothSolver:  Solving for Uz, Initial residual = 0.00458054, Final residual = 2.79365e-06, No Iterations 1
DICPCG:  Solving for p, Initial residual = 0.000185628, Final residual = 8.09285e-06, No Iterations 430
time step continuity errors : sum local = 3.00383e-09, global = 1.28428e-11, cumulative = 1.63041e-08
DICPCG:  Solving for p, Initial residual = 1.67536e-05, Final residual = 9.81313e-07, No Iterations 413
time step continuity errors : sum local = 3.60799e-10, global = -9.79005e-12, cumulative = 1.62943e-08
ExecutionTime = 150.66 s  ClockTime = 151 s

Time = 1075

Courant Number mean: 0.0365435 max: 0.293997
smoothSolver:  Solving for Ux, Initial residual = 0.00358597, Final residual = 7.75392e-06, No Iterations 1
smoothSolver:  Solving for Uy, Initial residual = 0.00358594, Final residual = 7.75388e-06, No Iterations 1
smoothSolver:  Solving for Uz, Initial residual = 0.00447001, Final residual = 2.71826e-06, No Iterations 1
DICPCG:  Solving for p, Initial residual = 0.000182087, Final residual = 8.16563e-06, No Iterations 430
time step continuity errors : sum local = 3.00326e-09, global = 1.77482e-11, cumulative = 1.63121e-08
DICPCG:  Solving for p, Initial residual = 1.66428e-05, Final residual = 9.94445e-07, No Iterations 409
time step continuity errors : sum local = 3.62375e-10, global = -1.06839e-11, cumulative = 1.63014e-08
ExecutionTime = 154.13 s  ClockTime = 155 s

Time = 1100

Courant Number mean: 0.0365221 max: 0.294013
smoothSolver:  Solving for Ux, Initial residual = 0.00355997, Final residual = 7.48848e-06, No Iterations 1
smoothSolver:  Solving for Uy, Initial residual = 0.00355989, Final residual = 7.48823e-06, No Iterations 1
smoothSolver:  Solving for Uz, Initial residual = 0.00436308, Final residual = 2.64568e-06, No Iterations 1
DICPCG:  Solving for p, Initial residual = 0.000177512, Final residual = 7.59109e-06, No Iterations 430
time step continuity errors : sum local = 2.76709e-09, global = -1.16945e-12, cumulative = 1.63002e-08
DICPCG:  Solving for p, Initial residual = 1.59396e-05, Final residual = 9.57429e-07, No Iterations 412
time step continuity errors : sum local = 3.4585e-10, global = -8.35121e-12, cumulative = 1.62919e-08
ExecutionTime = 157.55 s  ClockTime = 158 s

Time = 1125

Courant Number mean: 0.0365009 max: 0.294027
smoothSolver:  Solving for Ux, Initial residual = 0.00354247, Final residual = 7.23418e-06, No Iterations 1
smoothSolver:  Solving for Uy, Initial residual = 0.00354241, Final residual = 7.234e-06, No Iterations 1
smoothSolver:  Solving for Uz, Initial residual = 0.00425973, Final residual = 2.57586e-06, No Iterations 1
DICPCG:  Solving for p, Initial residual = 0.000174397, Final residual = 7.52925e-06, No Iterations 430
time step continuity errors : sum local = 2.72065e-09, global = -5.68778e-12, cumulative = 1.62862e-08
DICPCG:  Solving for p, Initial residual = 1.57171e-05, Final residual = 9.86965e-07, No Iterations 411
time step continuity errors : sum local = 3.53481e-10, global = -8.73223e-12, cumulative = 1.62774e-08
ExecutionTime = 161 s  ClockTime = 162 s

Time = 1150

Courant Number mean: 0.03648 max: 0.294039
smoothSolver:  Solving for Ux, Initial residual = 0.00352543, Final residual = 6.9942e-06, No Iterations 1
smoothSolver:  Solving for Uy, Initial residual = 0.00352537, Final residual = 6.99407e-06, No Iterations 1
smoothSolver:  Solving for Uz, Initial residual = 0.00416054, Final residual = 2.50915e-06, No Iterations 1
DICPCG:  Solving for p, Initial residual = 0.000169823, Final residual = 7.64348e-06, No Iterations 430
time step continuity errors : sum local = 2.73836e-09, global = 6.612e-12, cumulative = 1.6284e-08
DICPCG:  Solving for p, Initial residual = 1.56399e-05, Final residual = 9.98778e-07, No Iterations 405
time step continuity errors : sum local = 3.54725e-10, global = -1.11438e-11, cumulative = 1.62729e-08
ExecutionTime = 164.41 s  ClockTime = 165 s

Time = 1175

Courant Number mean: 0.0364592 max: 0.294049
smoothSolver:  Solving for Ux, Initial residual = 0.00350766, Final residual = 6.77203e-06, No Iterations 1
smoothSolver:  Solving for Uy, Initial residual = 0.0035076, Final residual = 6.77191e-06, No Iterations 1
smoothSolver:  Solving for Uz, Initial residual = 0.00406525, Final residual = 2.44547e-06, No Iterations 1
DICPCG:  Solving for p, Initial residual = 0.000166609, Final residual = 7.10133e-06, No Iterations 429
time step continuity errors : sum local = 2.52286e-09, global = 1.04625e-11, cumulative = 1.62834e-08
DICPCG:  Solving for p, Initial residual = 1.51351e-05, Final residual = 9.80662e-07, No Iterations 405
time step continuity errors : sum local = 3.45441e-10, global = -1.14531e-11, cumulative = 1.62719e-08
ExecutionTime = 167.82 s  ClockTime = 168 s

Time = 1200

Courant Number mean: 0.0364385 max: 0.294059
smoothSolver:  Solving for Ux, Initial residual = 0.00349045, Final residual = 6.56085e-06, No Iterations 1
smoothSolver:  Solving for Uy, Initial residual = 0.00349039, Final residual = 6.56085e-06, No Iterations 1
smoothSolver:  Solving for Uz, Initial residual = 0.00397362, Final residual = 2.3845e-06, No Iterations 1
DICPCG:  Solving for p, Initial residual = 0.000162871, Final residual = 7.46851e-06, No Iterations 430
time step continuity errors : sum local = 2.63158e-09, global = 1.03926e-11, cumulative = 1.62823e-08
DICPCG:  Solving for p, Initial residual = 1.51564e-05, Final residual = 9.85294e-07, No Iterations 405
time step continuity errors : sum local = 3.44289e-10, global = -1.15136e-11, cumulative = 1.62708e-08
ExecutionTime = 171.21 s  ClockTime = 172 s

Time = 1225

Courant Number mean: 0.0364181 max: 0.294067
smoothSolver:  Solving for Ux, Initial residual = 0.00347374, Final residual = 6.35917e-06, No Iterations 1
smoothSolver:  Solving for Uy, Initial residual = 0.00347369, Final residual = 6.35926e-06, No Iterations 1
smoothSolver:  Solving for Uz, Initial residual = 0.00388544, Final residual = 2.32611e-06, No Iterations 1
DICPCG:  Solving for p, Initial residual = 0.000160586, Final residual = 7.66398e-06, No Iterations 429
time step continuity errors : sum local = 2.67878e-09, global = 1.66666e-11, cumulative = 1.62875e-08
DICPCG:  Solving for p, Initial residual = 1.52788e-05, Final residual = 9.78155e-07, No Iterations 410
time step continuity errors : sum local = 3.39105e-10, global = -9.54011e-12, cumulative = 1.62779e-08
ExecutionTime = 174.65 s  ClockTime = 175 s

Time = 1250

Courant Number mean: 0.0363978 max: 0.294074
smoothSolver:  Solving for Ux, Initial residual = 0.00345657, Final residual = 6.17011e-06, No Iterations 1
smoothSolver:  Solving for Uy, Initial residual = 0.00345653, Final residual = 6.17027e-06, No Iterations 1
smoothSolver:  Solving for Uz, Initial residual = 0.00380051, Final residual = 2.27021e-06, No Iterations 1
DICPCG:  Solving for p, Initial residual = 0.000157515, Final residual = 6.44759e-06, No Iterations 428
time step continuity errors : sum local = 2.23588e-09, global = -1.07122e-11, cumulative = 1.62672e-08
DICPCG:  Solving for p, Initial residual = 1.4085e-05, Final residual = 9.8113e-07, No Iterations 407
time step continuity errors : sum local = 3.3751e-10, global = -9.70248e-12, cumulative = 1.62575e-08
ExecutionTime = 178.05 s  ClockTime = 179 s

Time = 1275

Courant Number mean: 0.0363777 max: 0.294081
smoothSolver:  Solving for Ux, Initial residual = 0.00344114, Final residual = 5.99048e-06, No Iterations 1
smoothSolver:  Solving for Uy, Initial residual = 0.00344112, Final residual = 5.99075e-06, No Iterations 1
smoothSolver:  Solving for Uz, Initial residual = 0.00371866, Final residual = 2.2167e-06, No Iterations 1
DICPCG:  Solving for p, Initial residual = 0.000154485, Final residual = 6.83506e-06, No Iterations 428
time step continuity errors : sum local = 2.35193e-09, global = -2.83433e-13, cumulative = 1.62572e-08
DICPCG:  Solving for p, Initial residual = 1.42253e-05, Final residual = 9.78939e-07, No Iterations 407
time step continuity errors : sum local = 3.34206e-10, global = -9.7581e-12, cumulative = 1.62475e-08
ExecutionTime = 181.49 s  ClockTime = 182 s

Time = 1300

Courant Number mean: 0.0363577 max: 0.294086
smoothSolver:  Solving for Ux, Initial residual = 0.00343166, Final residual = 5.81723e-06, No Iterations 1
smoothSolver:  Solving for Uy, Initial residual = 0.00343165, Final residual = 5.81755e-06, No Iterations 1
smoothSolver:  Solving for Uz, Initial residual = 0.00363971, Final residual = 2.16541e-06, No Iterations 1
DICPCG:  Solving for p, Initial residual = 0.000151718, Final residual = 7.01131e-06, No Iterations 428
time step continuity errors : sum local = 2.3943e-09, global = -2.26944e-12, cumulative = 1.62452e-08
DICPCG:  Solving for p, Initial residual = 1.42441e-05, Final residual = 9.91078e-07, No Iterations 407
time step continuity errors : sum local = 3.35836e-10, global = -1.01219e-11, cumulative = 1.62351e-08
ExecutionTime = 184.89 s  ClockTime = 185 s

Time = 1325

Courant Number mean: 0.036338 max: 0.294091
smoothSolver:  Solving for Ux, Initial residual = 0.00342863, Final residual = 5.6541e-06, No Iterations 1
smoothSolver:  Solving for Uy, Initial residual = 0.00342863, Final residual = 5.65445e-06, No Iterations 1
smoothSolver:  Solving for Uz, Initial residual = 0.00356352, Final residual = 2.11615e-06, No Iterations 1
DICPCG:  Solving for p, Initial residual = 0.000149512, Final residual = 6.24332e-06, No Iterations 429
time step continuity errors : sum local = 2.11618e-09, global = 7.6898e-12, cumulative = 1.62428e-08
DICPCG:  Solving for p, Initial residual = 1.35536e-05, Final residual = 9.73859e-07, No Iterations 402
time step continuity errors : sum local = 3.27593e-10, global = -1.08088e-11, cumulative = 1.6232e-08
ExecutionTime = 188.28 s  ClockTime = 189 s

Time = 1350

Courant Number mean: 0.0363183 max: 0.294096
smoothSolver:  Solving for Ux, Initial residual = 0.00342391, Final residual = 5.50101e-06, No Iterations 1
smoothSolver:  Solving for Uy, Initial residual = 0.00342395, Final residual = 5.5016e-06, No Iterations 1
smoothSolver:  Solving for Uz, Initial residual = 0.00348994, Final residual = 2.06873e-06, No Iterations 1
DICPCG:  Solving for p, Initial residual = 0.000146894, Final residual = 7.09454e-06, No Iterations 426
time step continuity errors : sum local = 2.38713e-09, global = 1.97793e-11, cumulative = 1.62517e-08
DICPCG:  Solving for p, Initial residual = 1.39776e-05, Final residual = 9.97648e-07, No Iterations 402
time step continuity errors : sum local = 3.33189e-10, global = -1.23814e-11, cumulative = 1.62393e-08
ExecutionTime = 191.67 s  ClockTime = 192 s

Time = 1375

Courant Number mean: 0.0362988 max: 0.2941
smoothSolver:  Solving for Ux, Initial residual = 0.00341711, Final residual = 5.35517e-06, No Iterations 1
smoothSolver:  Solving for Uy, Initial residual = 0.003417, Final residual = 5.3555e-06, No Iterations 1
smoothSolver:  Solving for Uz, Initial residual = 0.0034201, Final residual = 2.02333e-06, No Iterations 1
DICPCG:  Solving for p, Initial residual = 0.000144789, Final residual = 6.98344e-06, No Iterations 429
time step continuity errors : sum local = 2.33289e-09, global = 1.18239e-11, cumulative = 1.62512e-08
DICPCG:  Solving for p, Initial residual = 1.38663e-05, Final residual = 9.95159e-07, No Iterations 405
time step continuity errors : sum local = 3.30016e-10, global = -9.47775e-12, cumulative = 1.62417e-08
ExecutionTime = 195.08 s  ClockTime = 196 s

Time = 1400

Courant Number mean: 0.0362795 max: 0.294104
smoothSolver:  Solving for Ux, Initial residual = 0.00340977, Final residual = 5.21383e-06, No Iterations 1
smoothSolver:  Solving for Uy, Initial residual = 0.00340995, Final residual = 5.21468e-06, No Iterations 1
smoothSolver:  Solving for Uz, Initial residual = 0.00335289, Final residual = 1.97975e-06, No Iterations 1
DICPCG:  Solving for p, Initial residual = 0.000142408, Final residual = 5.96926e-06, No Iterations 426
time step continuity errors : sum local = 1.98004e-09, global = -1.97834e-11, cumulative = 1.62219e-08
DICPCG:  Solving for p, Initial residual = 1.28333e-05, Final residual = 9.89396e-07, No Iterations 404
time step continuity errors : sum local = 3.25834e-10, global = -9.15832e-12, cumulative = 1.62128e-08
ExecutionTime = 198.47 s  ClockTime = 199 s

Time = 1425

Courant Number mean: 0.0362603 max: 0.294107
smoothSolver:  Solving for Ux, Initial residual = 0.00340228, Final residual = 5.08203e-06, No Iterations 1
smoothSolver:  Solving for Uy, Initial residual = 0.00340228, Final residual = 5.08248e-06, No Iterations 1
smoothSolver:  Solving for Uz, Initial residual = 0.0032881, Final residual = 1.93792e-06, No Iterations 1
DICPCG:  Solving for p, Initial residual = 0.000140243, Final residual = 6.73346e-06, No Iterations 426
time step continuity errors : sum local = 2.21806e-09, global = 1.80703e-11, cumulative = 1.62308e-08
DICPCG:  Solving for p, Initial residual = 1.33213e-05, Final residual = 9.72714e-07, No Iterations 405
time step continuity errors : sum local = 3.18162e-10, global = -9.30749e-12, cumulative = 1.62215e-08
ExecutionTime = 201.89 s  ClockTime = 202 s

Time = 1450

Courant Number mean: 0.0362413 max: 0.29411
smoothSolver:  Solving for Ux, Initial residual = 0.00339243, Final residual = 4.951e-06, No Iterations 1
smoothSolver:  Solving for Uy, Initial residual = 0.00339244, Final residual = 4.95148e-06, No Iterations 1
smoothSolver:  Solving for Uz, Initial residual = 0.00322792, Final residual = 1.89781e-06, No Iterations 1
DICPCG:  Solving for p, Initial residual = 0.00013886, Final residual = 6.60108e-06, No Iterations 428
time step continuity errors : sum local = 2.15965e-09, global = 2.95383e-11, cumulative = 1.62511e-08
DICPCG:  Solving for p, Initial residual = 1.3141e-05, Final residual = 9.91495e-07, No Iterations 402
time step continuity errors : sum local = 3.22135e-10, global = -1.17046e-11, cumulative = 1.62393e-08
ExecutionTime = 205.45 s  ClockTime = 206 s

Time = 1475

Courant Number mean: 0.0362224 max: 0.294113
smoothSolver:  Solving for Ux, Initial residual = 0.00338279, Final residual = 4.82714e-06, No Iterations 1
smoothSolver:  Solving for Uy, Initial residual = 0.00338275, Final residual = 4.82747e-06, No Iterations 1
smoothSolver:  Solving for Uz, Initial residual = 0.00316981, Final residual = 1.85904e-06, No Iterations 1
DICPCG:  Solving for p, Initial residual = 0.000137441, Final residual = 6.59081e-06, No Iterations 429
time step continuity errors : sum local = 2.14185e-09, global = 2.99535e-11, cumulative = 1.62693e-08
DICPCG:  Solving for p, Initial residual = 1.30554e-05, Final residual = 9.80401e-07, No Iterations 399
time step continuity errors : sum local = 3.16436e-10, global = -1.09616e-11, cumulative = 1.62583e-08
ExecutionTime = 209.23 s  ClockTime = 210 s

Time = 1500

Courant Number mean: 0.0362037 max: 0.294115
smoothSolver:  Solving for Ux, Initial residual = 0.00337215, Final residual = 4.70934e-06, No Iterations 1
smoothSolver:  Solving for Uy, Initial residual = 0.00337226, Final residual = 4.71004e-06, No Iterations 1
smoothSolver:  Solving for Uz, Initial residual = 0.00311346, Final residual = 1.8215e-06, No Iterations 1
DICPCG:  Solving for p, Initial residual = 0.000134681, Final residual = 5.93556e-06, No Iterations 424
time step continuity errors : sum local = 1.91621e-09, global = 1.50522e-11, cumulative = 1.62734e-08
DICPCG:  Solving for p, Initial residual = 1.2291e-05, Final residual = 9.944e-07, No Iterations 398
time step continuity errors : sum local = 3.18877e-10, global = -1.03228e-11, cumulative = 1.62631e-08
ExecutionTime = 212.8 s  ClockTime = 213 s

Time = 1525

Courant Number mean: 0.0361851 max: 0.294118
smoothSolver:  Solving for Ux, Initial residual = 0.00335926, Final residual = 4.59843e-06, No Iterations 1
smoothSolver:  Solving for Uy, Initial residual = 0.00335927, Final residual = 4.59899e-06, No Iterations 1
smoothSolver:  Solving for Uz, Initial residual = 0.00305879, Final residual = 1.78525e-06, No Iterations 1
DICPCG:  Solving for p, Initial residual = 0.000131635, Final residual = 6.13419e-06, No Iterations 429
time step continuity errors : sum local = 1.96752e-09, global = 1.44149e-11, cumulative = 1.62775e-08
DICPCG:  Solving for p, Initial residual = 1.2449e-05, Final residual = 9.58376e-07, No Iterations 397
time step continuity errors : sum local = 3.0537e-10, global = -9.5807e-12, cumulative = 1.62679e-08
ExecutionTime = 216.37 s  ClockTime = 217 s

Time = 1550

Courant Number mean: 0.0361666 max: 0.29412
smoothSolver:  Solving for Ux, Initial residual = 0.00334489, Final residual = 4.4905e-06, No Iterations 1
smoothSolver:  Solving for Uy, Initial residual = 0.00334492, Final residual = 4.49087e-06, No Iterations 1
smoothSolver:  Solving for Uz, Initial residual = 0.00300572, Final residual = 1.75014e-06, No Iterations 1
DICPCG:  Solving for p, Initial residual = 0.000130936, Final residual = 5.28205e-06, No Iterations 424
time step continuity errors : sum local = 1.68341e-09, global = 3.6046e-12, cumulative = 1.62715e-08
DICPCG:  Solving for p, Initial residual = 1.15654e-05, Final residual = 9.93607e-07, No Iterations 395
time step continuity errors : sum local = 3.14613e-10, global = -1.22564e-11, cumulative = 1.62593e-08
ExecutionTime = 219.88 s  ClockTime = 220 s

Time = 1575

Courant Number mean: 0.0361483 max: 0.294122
smoothSolver:  Solving for Ux, Initial residual = 0.00333024, Final residual = 4.39154e-06, No Iterations 1
smoothSolver:  Solving for Uy, Initial residual = 0.00333025, Final residual = 4.39181e-06, No Iterations 1
smoothSolver:  Solving for Uz, Initial residual = 0.00295418, Final residual = 1.71616e-06, No Iterations 1
DICPCG:  Solving for p, Initial residual = 0.000128438, Final residual = 6.40051e-06, No Iterations 426
time step continuity errors : sum local = 2.02709e-09, global = -7.77568e-13, cumulative = 1.62585e-08
DICPCG:  Solving for p, Initial residual = 1.23778e-05, Final residual = 9.90918e-07, No Iterations 55
time step continuity errors : sum local = 3.11828e-10, global = -3.79264e-11, cumulative = 1.62205e-08
ExecutionTime = 222.01 s  ClockTime = 223 s

Time = 1600

Courant Number mean: 0.03613 max: 0.294124
smoothSolver:  Solving for Ux, Initial residual = 0.00331646, Final residual = 4.29379e-06, No Iterations 1
smoothSolver:  Solving for Uy, Initial residual = 0.00331645, Final residual = 4.29416e-06, No Iterations 1
smoothSolver:  Solving for Uz, Initial residual = 0.00290395, Final residual = 1.6834e-06, No Iterations 1
DICPCG:  Solving for p, Initial residual = 0.0001269, Final residual = 5.17495e-06, No Iterations 429
time step continuity errors : sum local = 1.62842e-09, global = 1.25632e-12, cumulative = 1.62218e-08
DICPCG:  Solving for p, Initial residual = 1.13172e-05, Final residual = 9.90884e-07, No Iterations 45
time step continuity errors : sum local = 3.10008e-10, global = -3.79751e-11, cumulative = 1.61838e-08
ExecutionTime = 224.06 s  ClockTime = 225 s

Time = 1625

Courant Number mean: 0.036112 max: 0.294126
smoothSolver:  Solving for Ux, Initial residual = 0.00329477, Final residual = 4.1977e-06, No Iterations 1
smoothSolver:  Solving for Uy, Initial residual = 0.00329479, Final residual = 4.1981e-06, No Iterations 1
smoothSolver:  Solving for Uz, Initial residual = 0.00285543, Final residual = 1.65149e-06, No Iterations 1
DICPCG:  Solving for p, Initial residual = 0.000123816, Final residual = 5.60507e-06, No Iterations 430
time step continuity errors : sum local = 1.75354e-09, global = 3.50672e-11, cumulative = 1.62189e-08
DICPCG:  Solving for p, Initial residual = 1.15043e-05, Final residual = 9.83704e-07, No Iterations 46
time step continuity errors : sum local = 3.05917e-10, global = -3.99941e-11, cumulative = 1.61789e-08
ExecutionTime = 226.1 s  ClockTime = 227 s

Time = 1650

Courant Number mean: 0.036094 max: 0.294127
smoothSolver:  Solving for Ux, Initial residual = 0.00327575, Final residual = 4.10751e-06, No Iterations 1
smoothSolver:  Solving for Uy, Initial residual = 0.00327583, Final residual = 4.10803e-06, No Iterations 1
smoothSolver:  Solving for Uz, Initial residual = 0.00280808, Final residual = 1.62099e-06, No Iterations 1
DICPCG:  Solving for p, Initial residual = 0.000122801, Final residual = 5.49689e-06, No Iterations 430
time step continuity errors : sum local = 1.70938e-09, global = 2.1382e-11, cumulative = 1.62003e-08
DICPCG:  Solving for p, Initial residual = 1.13505e-05, Final residual = 9.87495e-07, No Iterations 48
time step continuity errors : sum local = 3.05292e-10, global = -3.86392e-11, cumulative = 1.61616e-08
ExecutionTime = 228.21 s  ClockTime = 229 s

Time = 1675

Courant Number mean: 0.0360762 max: 0.294129
smoothSolver:  Solving for Ux, Initial residual = 0.00325703, Final residual = 4.02252e-06, No Iterations 1
smoothSolver:  Solving for Uy, Initial residual = 0.003257, Final residual = 4.02291e-06, No Iterations 1
smoothSolver:  Solving for Uz, Initial residual = 0.00276204, Final residual = 1.59148e-06, No Iterations 1
DICPCG:  Solving for p, Initial residual = 0.000120098, Final residual = 5.50596e-06, No Iterations 424
time step continuity errors : sum local = 1.70215e-09, global = -1.52574e-11, cumulative = 1.61464e-08
DICPCG:  Solving for p, Initial residual = 1.1239e-05, Final residual = 9.76059e-07, No Iterations 38
time step continuity errors : sum local = 3.00009e-10, global = -3.82342e-11, cumulative = 1.61082e-08
ExecutionTime = 230.35 s  ClockTime = 231 s

Time = 1700

Courant Number mean: 0.0360585 max: 0.29413
smoothSolver:  Solving for Ux, Initial residual = 0.00323625, Final residual = 3.93961e-06, No Iterations 1
smoothSolver:  Solving for Uy, Initial residual = 0.00323629, Final residual = 3.94009e-06, No Iterations 1
smoothSolver:  Solving for Uz, Initial residual = 0.00271723, Final residual = 1.56281e-06, No Iterations 1
DICPCG:  Solving for p, Initial residual = 0.000118464, Final residual = 5.80081e-06, No Iterations 425
time step continuity errors : sum local = 1.78291e-09, global = -6.42867e-12, cumulative = 1.61017e-08
DICPCG:  Solving for p, Initial residual = 1.14449e-05, Final residual = 9.91198e-07, No Iterations 35
time step continuity errors : sum local = 3.02926e-10, global = -4.60605e-11, cumulative = 1.60557e-08
ExecutionTime = 232.37 s  ClockTime = 233 s

Time = 1725

Courant Number mean: 0.0360409 max: 0.294132
smoothSolver:  Solving for Ux, Initial residual = 0.00321452, Final residual = 3.86042e-06, No Iterations 1
smoothSolver:  Solving for Uy, Initial residual = 0.00321455, Final residual = 3.86098e-06, No Iterations 1
smoothSolver:  Solving for Uz, Initial residual = 0.0026736, Final residual = 1.53494e-06, No Iterations 1
DICPCG:  Solving for p, Initial residual = 0.000116867, Final residual = 4.93985e-06, No Iterations 429
time step continuity errors : sum local = 1.50964e-09, global = 1.40905e-11, cumulative = 1.60698e-08
DICPCG:  Solving for p, Initial residual = 1.06296e-05, Final residual = 9.78971e-07, No Iterations 33
time step continuity errors : sum local = 2.97508e-10, global = -4.34956e-11, cumulative = 1.60263e-08
ExecutionTime = 234.56 s  ClockTime = 235 s

Time = 1750

Courant Number mean: 0.0360235 max: 0.294133
smoothSolver:  Solving for Ux, Initial residual = 0.0031924, Final residual = 3.78255e-06, No Iterations 1
smoothSolver:  Solving for Uy, Initial residual = 0.00319244, Final residual = 3.78309e-06, No Iterations 1
smoothSolver:  Solving for Uz, Initial residual = 0.00263121, Final residual = 1.50787e-06, No Iterations 1
DICPCG:  Solving for p, Initial residual = 0.000114926, Final residual = 5.25414e-06, No Iterations 424
time step continuity errors : sum local = 1.59666e-09, global = -2.49698e-12, cumulative = 1.60238e-08
DICPCG:  Solving for p, Initial residual = 1.07635e-05, Final residual = 9.80928e-07, No Iterations 36
time step continuity errors : sum local = 2.96454e-10, global = -4.21102e-11, cumulative = 1.59817e-08
ExecutionTime = 236.72 s  ClockTime = 237 s

Time = 1775

Courant Number mean: 0.0360061 max: 0.294135
smoothSolver:  Solving for Ux, Initial residual = 0.00317005, Final residual = 3.70988e-06, No Iterations 1
smoothSolver:  Solving for Uy, Initial residual = 0.00317014, Final residual = 3.71038e-06, No Iterations 1
smoothSolver:  Solving for Uz, Initial residual = 0.00259164, Final residual = 1.48169e-06, No Iterations 1
DICPCG:  Solving for p, Initial residual = 0.000114605, Final residual = 5.45289e-06, No Iterations 424
time step continuity errors : sum local = 1.6479e-09, global = -1.09988e-11, cumulative = 1.59707e-08
DICPCG:  Solving for p, Initial residual = 1.08745e-05, Final residual = 9.89498e-07, No Iterations 36
time step continuity errors : sum local = 2.97413e-10, global = -4.12889e-11, cumulative = 1.59294e-08
ExecutionTime = 238.73 s  ClockTime = 239 s

Time = 1800

Courant Number mean: 0.0359889 max: 0.294136
smoothSolver:  Solving for Ux, Initial residual = 0.00314782, Final residual = 3.63819e-06, No Iterations 1
smoothSolver:  Solving for Uy, Initial residual = 0.00314783, Final residual = 3.63857e-06, No Iterations 1
smoothSolver:  Solving for Uz, Initial residual = 0.0025533, Final residual = 1.45632e-06, No Iterations 1
DICPCG:  Solving for p, Initial residual = 0.000112784, Final residual = 5.06375e-06, No Iterations 429
time step continuity errors : sum local = 1.52195e-09, global = 1.50861e-11, cumulative = 1.59445e-08
DICPCG:  Solving for p, Initial residual = 1.04787e-05, Final residual = 9.99662e-07, No Iterations 33
time step continuity errors : sum local = 2.98853e-10, global = -4.09391e-11, cumulative = 1.59035e-08
ExecutionTime = 240.89 s  ClockTime = 241 s

Time = 1825

Courant Number mean: 0.0359718 max: 0.294137
smoothSolver:  Solving for Ux, Initial residual = 0.00312338, Final residual = 3.56782e-06, No Iterations 1
smoothSolver:  Solving for Uy, Initial residual = 0.00312345, Final residual = 3.56828e-06, No Iterations 1
smoothSolver:  Solving for Uz, Initial residual = 0.00251591, Final residual = 1.43169e-06, No Iterations 1
DICPCG:  Solving for p, Initial residual = 0.000111121, Final residual = 4.96413e-06, No Iterations 430
time step continuity errors : sum local = 1.48399e-09, global = 1.41352e-11, cumulative = 1.59176e-08
DICPCG:  Solving for p, Initial residual = 1.02981e-05, Final residual = 9.96839e-07, No Iterations 33
time step continuity errors : sum local = 2.96431e-10, global = -3.92097e-11, cumulative = 1.58784e-08
ExecutionTime = 242.9 s  ClockTime = 243 s

Time = 1850

Courant Number mean: 0.0359549 max: 0.294138
smoothSolver:  Solving for Ux, Initial residual = 0.00310066, Final residual = 3.50234e-06, No Iterations 1
smoothSolver:  Solving for Uy, Initial residual = 0.0031007, Final residual = 3.50276e-06, No Iterations 1
smoothSolver:  Solving for Uz, Initial residual = 0.00247962, Final residual = 1.40782e-06, No Iterations 1
DICPCG:  Solving for p, Initial residual = 0.000109111, Final residual = 5.40753e-06, No Iterations 429
time step continuity errors : sum local = 1.60799e-09, global = 2.13541e-11, cumulative = 1.58998e-08
DICPCG:  Solving for p, Initial residual = 1.05882e-05, Final residual = 9.81741e-07, No Iterations 35
time step continuity errors : sum local = 2.90418e-10, global = -4.02024e-11, cumulative = 1.58596e-08
ExecutionTime = 245.14 s  ClockTime = 246 s

Time = 1875

Courant Number mean: 0.035938 max: 0.294139
smoothSolver:  Solving for Ux, Initial residual = 0.00307725, Final residual = 3.4381e-06, No Iterations 1
smoothSolver:  Solving for Uy, Initial residual = 0.00307734, Final residual = 3.43856e-06, No Iterations 1
smoothSolver:  Solving for Uz, Initial residual = 0.00244567, Final residual = 1.38466e-06, No Iterations 1
DICPCG:  Solving for p, Initial residual = 0.000107994, Final residual = 5.02188e-06, No Iterations 428
time step continuity errors : sum local = 1.48551e-09, global = 1.57861e-11, cumulative = 1.58754e-08
DICPCG:  Solving for p, Initial residual = 1.01908e-05, Final residual = 9.7987e-07, No Iterations 33
time step continuity errors : sum local = 2.88372e-10, global = -3.96154e-11, cumulative = 1.58358e-08
ExecutionTime = 247.15 s  ClockTime = 248 s

Time = 1900

Courant Number mean: 0.0359212 max: 0.29414
smoothSolver:  Solving for Ux, Initial residual = 0.00305318, Final residual = 3.37474e-06, No Iterations 1
smoothSolver:  Solving for Uy, Initial residual = 0.00305324, Final residual = 3.37518e-06, No Iterations 1
smoothSolver:  Solving for Uz, Initial residual = 0.00241274, Final residual = 1.36229e-06, No Iterations 1
DICPCG:  Solving for p, Initial residual = 0.00010595, Final residual = 4.62513e-06, No Iterations 430
time step continuity errors : sum local = 1.36111e-09, global = 1.74415e-11, cumulative = 1.58532e-08
DICPCG:  Solving for p, Initial residual = 9.7579e-06, Final residual = 9.69952e-07, No Iterations 30
time step continuity errors : sum local = 2.84005e-10, global = -4.41367e-11, cumulative = 1.58091e-08
ExecutionTime = 249.1 s  ClockTime = 250 s

Time = 1925

Courant Number mean: 0.0359046 max: 0.294141
smoothSolver:  Solving for Ux, Initial residual = 0.003029, Final residual = 3.31496e-06, No Iterations 1
smoothSolver:  Solving for Uy, Initial residual = 0.00302908, Final residual = 3.31553e-06, No Iterations 1
smoothSolver:  Solving for Uz, Initial residual = 0.00238057, Final residual = 1.34081e-06, No Iterations 1
DICPCG:  Solving for p, Initial residual = 0.000104839, Final residual = 4.8228e-06, No Iterations 430
time step continuity errors : sum local = 1.41208e-09, global = 1.98151e-11, cumulative = 1.58289e-08
DICPCG:  Solving for p, Initial residual = 9.85209e-06, Final residual = 9.8962e-07, No Iterations 30
time step continuity errors : sum local = 2.88314e-10, global = -4.31289e-11, cumulative = 1.57858e-08
ExecutionTime = 251.08 s  ClockTime = 252 s

Time = 1950

Courant Number mean: 0.035888 max: 0.294143
smoothSolver:  Solving for Ux, Initial residual = 0.00300433, Final residual = 3.2553e-06, No Iterations 1
smoothSolver:  Solving for Uy, Initial residual = 0.00300434, Final residual = 3.25558e-06, No Iterations 1
smoothSolver:  Solving for Uz, Initial residual = 0.00234912, Final residual = 1.31994e-06, No Iterations 1
DICPCG:  Solving for p, Initial residual = 0.000104133, Final residual = 4.88081e-06, No Iterations 430
time step continuity errors : sum local = 1.42192e-09, global = 1.934e-11, cumulative = 1.58051e-08
DICPCG:  Solving for p, Initial residual = 9.8409e-06, Final residual = 9.97584e-07, No Iterations 27
time step continuity errors : sum local = 2.89199e-10, global = -4.34114e-11, cumulative = 1.57617e-08
ExecutionTime = 253.05 s  ClockTime = 254 s

Time = 1975

Courant Number mean: 0.0358716 max: 0.294144
smoothSolver:  Solving for Ux, Initial residual = 0.00298108, Final residual = 3.1987e-06, No Iterations 1
smoothSolver:  Solving for Uy, Initial residual = 0.00298108, Final residual = 3.19906e-06, No Iterations 1
smoothSolver:  Solving for Uz, Initial residual = 0.00231837, Final residual = 1.29962e-06, No Iterations 1
DICPCG:  Solving for p, Initial residual = 0.000102737, Final residual = 4.37564e-06, No Iterations 423
time step continuity errors : sum local = 1.26845e-09, global = -1.56477e-11, cumulative = 1.5746e-08
DICPCG:  Solving for p, Initial residual = 9.41321e-06, Final residual = 9.89874e-07, No Iterations 27
time step continuity errors : sum local = 2.85567e-10, global = -4.14494e-11, cumulative = 1.57046e-08
ExecutionTime = 254.98 s  ClockTime = 255 s

Time = 2000

Courant Number mean: 0.0358553 max: 0.294145
smoothSolver:  Solving for Ux, Initial residual = 0.00295537, Final residual = 3.14112e-06, No Iterations 1
smoothSolver:  Solving for Uy, Initial residual = 0.00295546, Final residual = 3.14148e-06, No Iterations 1
smoothSolver:  Solving for Uz, Initial residual = 0.00228829, Final residual = 1.27985e-06, No Iterations 1
DICPCG:  Solving for p, Initial residual = 0.000101502, Final residual = 5.00812e-06, No Iterations 425
time step continuity errors : sum local = 1.44473e-09, global = 2.28306e-11, cumulative = 1.57274e-08
DICPCG:  Solving for p, Initial residual = 9.83984e-06, Final residual = 9.72719e-07, No Iterations 23
time step continuity errors : sum local = 2.7927e-10, global = -4.62151e-11, cumulative = 1.56812e-08
ExecutionTime = 256.89 s  ClockTime = 257 s

Time = 2025

Courant Number mean: 0.0358391 max: 0.294145
smoothSolver:  Solving for Ux, Initial residual = 0.00293208, Final residual = 3.0869e-06, No Iterations 1
smoothSolver:  Solving for Uy, Initial residual = 0.00293219, Final residual = 3.08728e-06, No Iterations 1
smoothSolver:  Solving for Uz, Initial residual = 0.00225887, Final residual = 1.26081e-06, No Iterations 1
DICPCG:  Solving for p, Initial residual = 0.000100088, Final residual = 4.42733e-06, No Iterations 431
time step continuity errors : sum local = 1.27105e-09, global = 2.10169e-11, cumulative = 1.57022e-08
DICPCG:  Solving for p, Initial residual = 9.27576e-06, Final residual = 9.93209e-07, No Iterations 24
time step continuity errors : sum local = 2.838e-10, global = -4.35855e-11, cumulative = 1.56586e-08
ExecutionTime = 258.85 s  ClockTime = 259 s

Time = 2050

Courant Number mean: 0.0358229 max: 0.294146
smoothSolver:  Solving for Ux, Initial residual = 0.00290772, Final residual = 3.03273e-06, No Iterations 1
smoothSolver:  Solving for Uy, Initial residual = 0.0029077, Final residual = 3.03303e-06, No Iterations 1
smoothSolver:  Solving for Uz, Initial residual = 0.00223009, Final residual = 1.24273e-06, No Iterations 1
DICPCG:  Solving for p, Initial residual = 9.83812e-05, Final residual = 4.80258e-06, No Iterations 425
time step continuity errors : sum local = 1.37225e-09, global = 4.08231e-12, cumulative = 1.56627e-08
DICPCG:  Solving for p, Initial residual = 9.53745e-06, Final residual = 9.75489e-07, No Iterations 22
time step continuity errors : sum local = 2.77433e-10, global = -4.8255e-11, cumulative = 1.56145e-08
ExecutionTime = 260.77 s  ClockTime = 261 s

Time = 2075

Courant Number mean: 0.0358069 max: 0.294147
smoothSolver:  Solving for Ux, Initial residual = 0.00288374, Final residual = 2.98191e-06, No Iterations 1
smoothSolver:  Solving for Uy, Initial residual = 0.00288378, Final residual = 2.98222e-06, No Iterations 1
smoothSolver:  Solving for Uz, Initial residual = 0.00220191, Final residual = 1.22524e-06, No Iterations 1
DICPCG:  Solving for p, Initial residual = 9.66625e-05, Final residual = 4.33728e-06, No Iterations 424
time step continuity errors : sum local = 1.2335e-09, global = -6.41923e-12, cumulative = 1.5608e-08
DICPCG:  Solving for p, Initial residual = 9.09063e-06, Final residual = 9.50598e-07, No Iterations 22
time step continuity errors : sum local = 2.69106e-10, global = -4.80016e-11, cumulative = 1.556e-08
ExecutionTime = 262.7 s  ClockTime = 263 s

Time = 2100

Courant Number mean: 0.035791 max: 0.294148
smoothSolver:  Solving for Ux, Initial residual = 0.00285876, Final residual = 2.92949e-06, No Iterations 1
smoothSolver:  Solving for Uy, Initial residual = 0.00285881, Final residual = 2.92978e-06, No Iterations 1
smoothSolver:  Solving for Uz, Initial residual = 0.00217433, Final residual = 1.20827e-06, No Iterations 1
DICPCG:  Solving for p, Initial residual = 9.55325e-05, Final residual = 4.72854e-06, No Iterations 425
time step continuity errors : sum local = 1.33857e-09, global = 3.7438e-12, cumulative = 1.55638e-08
DICPCG:  Solving for p, Initial residual = 9.351e-06, Final residual = 9.5532e-07, No Iterations 22
time step continuity errors : sum local = 2.69211e-10, global = -4.67922e-11, cumulative = 1.5517e-08
ExecutionTime = 264.61 s  ClockTime = 265 s

Time = 2125

Courant Number mean: 0.0357752 max: 0.294149
smoothSolver:  Solving for Ux, Initial residual = 0.00283363, Final residual = 2.87944e-06, No Iterations 1
smoothSolver:  Solving for Uy, Initial residual = 0.00283368, Final residual = 2.87975e-06, No Iterations 1
smoothSolver:  Solving for Uz, Initial residual = 0.00214733, Final residual = 1.19181e-06, No Iterations 1
DICPCG:  Solving for p, Initial residual = 9.497e-05, Final residual = 4.6643e-06, No Iterations 426
time step continuity errors : sum local = 1.31436e-09, global = 9.85819e-12, cumulative = 1.55268e-08
DICPCG:  Solving for p, Initial residual = 9.16699e-06, Final residual = 9.93481e-07, No Iterations 21
time step continuity errors : sum local = 2.78705e-10, global = -4.32311e-11, cumulative = 1.54836e-08
ExecutionTime = 266.54 s  ClockTime = 267 s

Time = 2150

Courant Number mean: 0.0357595 max: 0.29415
smoothSolver:  Solving for Ux, Initial residual = 0.00280876, Final residual = 2.82941e-06, No Iterations 1
smoothSolver:  Solving for Uy, Initial residual = 0.00280871, Final residual = 2.82966e-06, No Iterations 1
smoothSolver:  Solving for Uz, Initial residual = 0.00212089, Final residual = 1.17583e-06, No Iterations 1
DICPCG:  Solving for p, Initial residual = 9.35781e-05, Final residual = 4.38829e-06, No Iterations 423
time step continuity errors : sum local = 1.23103e-09, global = -4.28002e-12, cumulative = 1.54793e-08
DICPCG:  Solving for p, Initial residual = 8.93062e-06, Final residual = 9.96199e-07, No Iterations 23
time step continuity errors : sum local = 2.78227e-10, global = -4.10534e-11, cumulative = 1.54383e-08
ExecutionTime = 268.43 s  ClockTime = 269 s

Time = 2175

Courant Number mean: 0.0357439 max: 0.294151
smoothSolver:  Solving for Ux, Initial residual = 0.0027841, Final residual = 2.78155e-06, No Iterations 1
smoothSolver:  Solving for Uy, Initial residual = 0.00278423, Final residual = 2.78188e-06, No Iterations 1
smoothSolver:  Solving for Uz, Initial residual = 0.00209498, Final residual = 1.16033e-06, No Iterations 1
DICPCG:  Solving for p, Initial residual = 9.24371e-05, Final residual = 4.29492e-06, No Iterations 427
time step continuity errors : sum local = 1.19948e-09, global = 1.32852e-11, cumulative = 1.54516e-08
DICPCG:  Solving for p, Initial residual = 8.82361e-06, Final residual = 9.93322e-07, No Iterations 20
time step continuity errors : sum local = 2.76208e-10, global = -4.26152e-11, cumulative = 1.5409e-08
ExecutionTime = 270.36 s  ClockTime = 271 s

Time = 2200

Courant Number mean: 0.0357284 max: 0.294152
smoothSolver:  Solving for Ux, Initial residual = 0.00275887, Final residual = 2.73435e-06, No Iterations 1
smoothSolver:  Solving for Uy, Initial residual = 0.00275891, Final residual = 2.73457e-06, No Iterations 1
smoothSolver:  Solving for Uz, Initial residual = 0.00206958, Final residual = 1.14519e-06, No Iterations 1
DICPCG:  Solving for p, Initial residual = 9.1639e-05, Final residual = 4.12566e-06, No Iterations 425
time step continuity errors : sum local = 1.14716e-09, global = 1.40359e-11, cumulative = 1.5423e-08
DICPCG:  Solving for p, Initial residual = 8.62025e-06, Final residual = 9.88094e-07, No Iterations 20
time step continuity errors : sum local = 2.73564e-10, global = -4.30895e-11, cumulative = 1.53799e-08
ExecutionTime = 272.27 s  ClockTime = 273 s

Time = 2225

Courant Number mean: 0.0357129 max: 0.294153
smoothSolver:  Solving for Ux, Initial residual = 0.00273417, Final residual = 2.68932e-06, No Iterations 1
smoothSolver:  Solving for Uy, Initial residual = 0.00273425, Final residual = 2.68965e-06, No Iterations 1
smoothSolver:  Solving for Uz, Initial residual = 0.00204469, Final residual = 1.1304e-06, No Iterations 1
DICPCG:  Solving for p, Initial residual = 9.00501e-05, Final residual = 4.46958e-06, No Iterations 428
time step continuity errors : sum local = 1.23741e-09, global = 1.6259e-11, cumulative = 1.53962e-08
DICPCG:  Solving for p, Initial residual = 8.81755e-06, Final residual = 9.81315e-07, No Iterations 20
time step continuity errors : sum local = 2.70526e-10, global = -4.19086e-11, cumulative = 1.53542e-08
ExecutionTime = 274.22 s  ClockTime = 275 s

Time = 2250

Courant Number mean: 0.0356976 max: 0.294153
smoothSolver:  Solving for Ux, Initial residual = 0.00270857, Final residual = 2.64285e-06, No Iterations 1
smoothSolver:  Solving for Uy, Initial residual = 0.00270862, Final residual = 2.64303e-06, No Iterations 1
smoothSolver:  Solving for Uz, Initial residual = 0.00202029, Final residual = 1.1162e-06, No Iterations 1
DICPCG:  Solving for p, Initial residual = 8.90081e-05, Final residual = 4.12372e-06, No Iterations 421
time step continuity errors : sum local = 1.13678e-09, global = -1.3711e-11, cumulative = 1.53405e-08
DICPCG:  Solving for p, Initial residual = 8.52372e-06, Final residual = 9.47442e-07, No Iterations 23
time step continuity errors : sum local = 2.60085e-10, global = -3.89688e-11, cumulative = 1.53016e-08
ExecutionTime = 276.13 s  ClockTime = 277 s

Time = 2275

Courant Number mean: 0.0356824 max: 0.294154
smoothSolver:  Solving for Ux, Initial residual = 0.0026838, Final residual = 2.5997e-06, No Iterations 1
smoothSolver:  Solving for Uy, Initial residual = 0.00268383, Final residual = 2.6e-06, No Iterations 1
smoothSolver:  Solving for Uz, Initial residual = 0.00199636, Final residual = 1.10237e-06, No Iterations 1
DICPCG:  Solving for p, Initial residual = 8.77498e-05, Final residual = 3.73911e-06, No Iterations 431
time step continuity errors : sum local = 1.02641e-09, global = 1.16033e-11, cumulative = 1.53132e-08
DICPCG:  Solving for p, Initial residual = 8.13353e-06, Final residual = 9.78412e-07, No Iterations 22
time step continuity errors : sum local = 2.67467e-10, global = -4.42791e-11, cumulative = 1.52689e-08
ExecutionTime = 278.11 s  ClockTime = 279 s

Time = 2300

Courant Number mean: 0.0356672 max: 0.294155
smoothSolver:  Solving for Ux, Initial residual = 0.00265824, Final residual = 2.55736e-06, No Iterations 1
smoothSolver:  Solving for Uy, Initial residual = 0.00265828, Final residual = 2.55756e-06, No Iterations 1
smoothSolver:  Solving for Uz, Initial residual = 0.00197289, Final residual = 1.08891e-06, No Iterations 1
DICPCG:  Solving for p, Initial residual = 8.65449e-05, Final residual = 3.90919e-06, No Iterations 429
time step continuity errors : sum local = 1.06862e-09, global = 1.71144e-11, cumulative = 1.5286e-08
DICPCG:  Solving for p, Initial residual = 8.20264e-06, Final residual = 9.62848e-07, No Iterations 20
time step continuity errors : sum local = 2.62128e-10, global = -4.04207e-11, cumulative = 1.52456e-08
ExecutionTime = 280.04 s  ClockTime = 281 s

Time = 2325

Courant Number mean: 0.0356522 max: 0.294156
smoothSolver:  Solving for Ux, Initial residual = 0.00263316, Final residual = 2.51403e-06, No Iterations 1
smoothSolver:  Solving for Uy, Initial residual = 0.00263321, Final residual = 2.51434e-06, No Iterations 1
smoothSolver:  Solving for Uz, Initial residual = 0.00194986, Final residual = 1.07572e-06, No Iterations 1
DICPCG:  Solving for p, Initial residual = 8.54502e-05, Final residual = 4.03904e-06, No Iterations 428
time step continuity errors : sum local = 1.09957e-09, global = 1.49329e-11, cumulative = 1.52605e-08
DICPCG:  Solving for p, Initial residual = 8.24103e-06, Final residual = 9.48776e-07, No Iterations 20
time step continuity errors : sum local = 2.57246e-10, global = -3.93103e-11, cumulative = 1.52212e-08
ExecutionTime = 281.96 s  ClockTime = 282 s

Time = 2350

Courant Number mean: 0.0356372 max: 0.294156
smoothSolver:  Solving for Ux, Initial residual = 0.00260811, Final residual = 2.47249e-06, No Iterations 1
smoothSolver:  Solving for Uy, Initial residual = 0.00260814, Final residual = 2.47272e-06, No Iterations 1
smoothSolver:  Solving for Uz, Initial residual = 0.00192727, Final residual = 1.06277e-06, No Iterations 1
DICPCG:  Solving for p, Initial residual = 8.44889e-05, Final residual = 4.10898e-06, No Iterations 429
time step continuity errors : sum local = 1.11405e-09, global = 1.79619e-11, cumulative = 1.52392e-08
DICPCG:  Solving for p, Initial residual = 8.25347e-06, Final residual = 9.72833e-07, No Iterations 20
[...]
smoothSolver:  Solving for Uz, Initial residual = 2.36447e-08, Final residual = 2.36447e-08, No Iterations 0
DICPCG:  Solving for p, Initial residual = 1.10419e-05, Final residual = 8.12177e-07, No Iterations 4
time step continuity errors : sum local = 1.12974e-10, global = -1.38546e-11, cumulative = 5.92561e-08
DICPCG:  Solving for p, Initial residual = 9.55949e-07, Final residual = 9.55949e-07, No Iterations 0
time step continuity errors : sum local = 1.32973e-10, global = -1.38185e-11, cumulative = 5.92423e-08
ExecutionTime = 2898.35 s  ClockTime = 2902 s

Time = 99450

Courant Number mean: 0.0321282 max: 0.294187
smoothSolver:  Solving for Ux, Initial residual = 1.96214e-06, Final residual = 1.96214e-06, No Iterations 0
smoothSolver:  Solving for Uy, Initial residual = 1.93366e-06, Final residual = 1.93366e-06, No Iterations 0
smoothSolver:  Solving for Uz, Initial residual = 2.38243e-08, Final residual = 2.38243e-08, No Iterations 0
DICPCG:  Solving for p, Initial residual = 1.12935e-05, Final residual = 9.90673e-07, No Iterations 3
time step continuity errors : sum local = 1.37803e-10, global = -1.36189e-11, cumulative = 5.92286e-08
DICPCG:  Solving for p, Initial residual = 1.13231e-06, Final residual = 7.30216e-07, No Iterations 1
time step continuity errors : sum local = 1.01574e-10, global = -1.37394e-11, cumulative = 5.92149e-08
ExecutionTime = 2898.55 s  ClockTime = 2902 s

Time = 99475

Courant Number mean: 0.0321282 max: 0.294187
smoothSolver:  Solving for Ux, Initial residual = 1.92873e-06, Final residual = 1.92873e-06, No Iterations 0
smoothSolver:  Solving for Uy, Initial residual = 1.88409e-06, Final residual = 1.88409e-06, No Iterations 0
smoothSolver:  Solving for Uz, Initial residual = 2.36818e-08, Final residual = 2.36818e-08, No Iterations 0
DICPCG:  Solving for p, Initial residual = 1.1227e-05, Final residual = 8.75047e-07, No Iterations 3
time step continuity errors : sum local = 1.2172e-10, global = -1.34011e-11, cumulative = 5.92015e-08
DICPCG:  Solving for p, Initial residual = 1.01581e-06, Final residual = 6.72636e-07, No Iterations 1
time step continuity errors : sum local = 9.35641e-11, global = -1.33766e-11, cumulative = 5.91881e-08
ExecutionTime = 2898.75 s  ClockTime = 2902 s

Time = 99500

Courant Number mean: 0.0321282 max: 0.294187
smoothSolver:  Solving for Ux, Initial residual = 1.82253e-06, Final residual = 1.82253e-06, No Iterations 0
smoothSolver:  Solving for Uy, Initial residual = 1.77086e-06, Final residual = 1.77086e-06, No Iterations 0
smoothSolver:  Solving for Uz, Initial residual = 2.33533e-08, Final residual = 2.33533e-08, No Iterations 0
DICPCG:  Solving for p, Initial residual = 1.11531e-05, Final residual = 8.57217e-07, No Iterations 3
time step continuity errors : sum local = 1.19239e-10, global = -1.32259e-11, cumulative = 5.91749e-08
DICPCG:  Solving for p, Initial residual = 9.94636e-07, Final residual = 9.94636e-07, No Iterations 0
time step continuity errors : sum local = 1.38355e-10, global = -1.32742e-11, cumulative = 5.91616e-08
ExecutionTime = 2898.94 s  ClockTime = 2902 s

Time = 99525

Courant Number mean: 0.0321282 max: 0.294187
smoothSolver:  Solving for Ux, Initial residual = 1.85761e-06, Final residual = 1.85761e-06, No Iterations 0
smoothSolver:  Solving for Uy, Initial residual = 1.80808e-06, Final residual = 1.80808e-06, No Iterations 0
smoothSolver:  Solving for Uz, Initial residual = 2.33764e-08, Final residual = 2.33764e-08, No Iterations 0
DICPCG:  Solving for p, Initial residual = 1.14531e-05, Final residual = 8.51496e-07, No Iterations 3
time step continuity errors : sum local = 1.18444e-10, global = -1.31882e-11, cumulative = 5.91484e-08
DICPCG:  Solving for p, Initial residual = 1.0028e-06, Final residual = 6.82541e-07, No Iterations 1
time step continuity errors : sum local = 9.49419e-11, global = -1.32167e-11, cumulative = 5.91352e-08
ExecutionTime = 2899.14 s  ClockTime = 2902 s

Time = 99550

Courant Number mean: 0.0321282 max: 0.294187
smoothSolver:  Solving for Ux, Initial residual = 1.82448e-06, Final residual = 1.82448e-06, No Iterations 0
smoothSolver:  Solving for Uy, Initial residual = 1.78372e-06, Final residual = 1.78372e-06, No Iterations 0
smoothSolver:  Solving for Uz, Initial residual = 2.3312e-08, Final residual = 2.3312e-08, No Iterations 0
DICPCG:  Solving for p, Initial residual = 1.12478e-05, Final residual = 9.01598e-07, No Iterations 3
time step continuity errors : sum local = 1.25413e-10, global = -1.33281e-11, cumulative = 5.91219e-08
DICPCG:  Solving for p, Initial residual = 1.03851e-06, Final residual = 7.12862e-07, No Iterations 1
time step continuity errors : sum local = 9.91596e-11, global = -1.35161e-11, cumulative = 5.91084e-08
ExecutionTime = 2899.34 s  ClockTime = 2903 s

Time = 99575

Courant Number mean: 0.0321282 max: 0.294187
smoothSolver:  Solving for Ux, Initial residual = 1.75098e-06, Final residual = 1.75098e-06, No Iterations 0
smoothSolver:  Solving for Uy, Initial residual = 1.72655e-06, Final residual = 1.72655e-06, No Iterations 0
smoothSolver:  Solving for Uz, Initial residual = 2.31974e-08, Final residual = 2.31974e-08, No Iterations 0
DICPCG:  Solving for p, Initial residual = 1.12021e-05, Final residual = 9.33972e-07, No Iterations 3
time step continuity errors : sum local = 1.29916e-10, global = -1.36528e-11, cumulative = 5.90947e-08
DICPCG:  Solving for p, Initial residual = 1.07245e-06, Final residual = 7.43138e-07, No Iterations 1
time step continuity errors : sum local = 1.03371e-10, global = -1.37233e-11, cumulative = 5.9081e-08
ExecutionTime = 2899.54 s  ClockTime = 2903 s

Time = 99600

Courant Number mean: 0.0321282 max: 0.294187
smoothSolver:  Solving for Ux, Initial residual = 1.74081e-06, Final residual = 1.74081e-06, No Iterations 0
smoothSolver:  Solving for Uy, Initial residual = 1.72769e-06, Final residual = 1.72769e-06, No Iterations 0
smoothSolver:  Solving for Uz, Initial residual = 2.31612e-08, Final residual = 2.31612e-08, No Iterations 0
DICPCG:  Solving for p, Initial residual = 1.12418e-05, Final residual = 9.36673e-07, No Iterations 3
time step continuity errors : sum local = 1.30292e-10, global = -1.41351e-11, cumulative = 5.90669e-08
DICPCG:  Solving for p, Initial residual = 1.07434e-06, Final residual = 7.41567e-07, No Iterations 1
time step continuity errors : sum local = 1.03153e-10, global = -1.4373e-11, cumulative = 5.90525e-08
ExecutionTime = 2899.73 s  ClockTime = 2903 s

Time = 99625

Courant Number mean: 0.0321282 max: 0.294187
smoothSolver:  Solving for Ux, Initial residual = 1.7385e-06, Final residual = 1.7385e-06, No Iterations 0
smoothSolver:  Solving for Uy, Initial residual = 1.72335e-06, Final residual = 1.72335e-06, No Iterations 0
smoothSolver:  Solving for Uz, Initial residual = 2.30719e-08, Final residual = 2.30719e-08, No Iterations 0
DICPCG:  Solving for p, Initial residual = 1.12336e-05, Final residual = 9.407e-07, No Iterations 3
time step continuity errors : sum local = 1.30852e-10, global = -1.48137e-11, cumulative = 5.90377e-08
DICPCG:  Solving for p, Initial residual = 1.07901e-06, Final residual = 7.48963e-07, No Iterations 1
time step continuity errors : sum local = 1.04181e-10, global = -1.49279e-11, cumulative = 5.90227e-08
ExecutionTime = 2899.93 s  ClockTime = 2903 s

Time = 99650

Courant Number mean: 0.0321282 max: 0.294187
smoothSolver:  Solving for Ux, Initial residual = 1.74635e-06, Final residual = 1.74635e-06, No Iterations 0
smoothSolver:  Solving for Uy, Initial residual = 1.7241e-06, Final residual = 1.7241e-06, No Iterations 0
smoothSolver:  Solving for Uz, Initial residual = 2.29752e-08, Final residual = 2.29752e-08, No Iterations 0
DICPCG:  Solving for p, Initial residual = 1.12265e-05, Final residual = 9.30689e-07, No Iterations 3
time step continuity errors : sum local = 1.29459e-10, global = -1.56054e-11, cumulative = 5.90071e-08
DICPCG:  Solving for p, Initial residual = 1.06824e-06, Final residual = 7.35646e-07, No Iterations 1
time step continuity errors : sum local = 1.02329e-10, global = -1.58748e-11, cumulative = 5.89913e-08
ExecutionTime = 2900.13 s  ClockTime = 2903 s

Time = 99675

Courant Number mean: 0.0321282 max: 0.294187
smoothSolver:  Solving for Ux, Initial residual = 1.75626e-06, Final residual = 1.75626e-06, No Iterations 0
smoothSolver:  Solving for Uy, Initial residual = 1.72648e-06, Final residual = 1.72648e-06, No Iterations 0
smoothSolver:  Solving for Uz, Initial residual = 2.28587e-08, Final residual = 2.28587e-08, No Iterations 0
DICPCG:  Solving for p, Initial residual = 1.12118e-05, Final residual = 9.18611e-07, No Iterations 3
time step continuity errors : sum local = 1.27779e-10, global = -1.65283e-11, cumulative = 5.89747e-08
DICPCG:  Solving for p, Initial residual = 1.05674e-06, Final residual = 7.25077e-07, No Iterations 1
time step continuity errors : sum local = 1.00859e-10, global = -1.66624e-11, cumulative = 5.89581e-08
ExecutionTime = 2900.33 s  ClockTime = 2904 s

Time = 99700

Courant Number mean: 0.0321282 max: 0.294187
smoothSolver:  Solving for Ux, Initial residual = 1.75883e-06, Final residual = 1.75883e-06, No Iterations 0
smoothSolver:  Solving for Uy, Initial residual = 1.7308e-06, Final residual = 1.7308e-06, No Iterations 0
smoothSolver:  Solving for Uz, Initial residual = 2.27373e-08, Final residual = 2.27373e-08, No Iterations 0
DICPCG:  Solving for p, Initial residual = 1.11965e-05, Final residual = 9.04568e-07, No Iterations 3
time step continuity errors : sum local = 1.25826e-10, global = -1.74921e-11, cumulative = 5.89406e-08
DICPCG:  Solving for p, Initial residual = 1.0425e-06, Final residual = 7.11286e-07, No Iterations 1
time step continuity errors : sum local = 9.89404e-11, global = -1.77702e-11, cumulative = 5.89228e-08
ExecutionTime = 2900.53 s  ClockTime = 2904 s

Time = 99725

Courant Number mean: 0.0321282 max: 0.294187
smoothSolver:  Solving for Ux, Initial residual = 1.75993e-06, Final residual = 1.75993e-06, No Iterations 0
smoothSolver:  Solving for Uy, Initial residual = 1.73179e-06, Final residual = 1.73179e-06, No Iterations 0
smoothSolver:  Solving for Uz, Initial residual = 2.26034e-08, Final residual = 2.26034e-08, No Iterations 0
DICPCG:  Solving for p, Initial residual = 1.11856e-05, Final residual = 8.94631e-07, No Iterations 3
time step continuity errors : sum local = 1.24444e-10, global = -1.85151e-11, cumulative = 5.89043e-08
DICPCG:  Solving for p, Initial residual = 1.03279e-06, Final residual = 7.00865e-07, No Iterations 1
time step continuity errors : sum local = 9.74908e-11, global = -1.86478e-11, cumulative = 5.88857e-08
ExecutionTime = 2900.73 s  ClockTime = 2904 s

Time = 99750

Courant Number mean: 0.0321282 max: 0.294187
smoothSolver:  Solving for Ux, Initial residual = 1.75252e-06, Final residual = 1.75252e-06, No Iterations 0
smoothSolver:  Solving for Uy, Initial residual = 1.73256e-06, Final residual = 1.73256e-06, No Iterations 0
smoothSolver:  Solving for Uz, Initial residual = 2.24612e-08, Final residual = 2.24612e-08, No Iterations 0
DICPCG:  Solving for p, Initial residual = 1.11768e-05, Final residual = 8.87423e-07, No Iterations 3
time step continuity errors : sum local = 1.23441e-10, global = -1.95062e-11, cumulative = 5.88661e-08
DICPCG:  Solving for p, Initial residual = 1.02574e-06, Final residual = 6.95457e-07, No Iterations 1
time step continuity errors : sum local = 9.67385e-11, global = -1.97732e-11, cumulative = 5.88464e-08
ExecutionTime = 2900.93 s  ClockTime = 2904 s

Time = 99775

Courant Number mean: 0.0321282 max: 0.294187
smoothSolver:  Solving for Ux, Initial residual = 1.74414e-06, Final residual = 1.74414e-06, No Iterations 0
smoothSolver:  Solving for Uy, Initial residual = 1.72883e-06, Final residual = 1.72883e-06, No Iterations 0
smoothSolver:  Solving for Uz, Initial residual = 2.23048e-08, Final residual = 2.23048e-08, No Iterations 0
DICPCG:  Solving for p, Initial residual = 1.11827e-05, Final residual = 8.91964e-07, No Iterations 3
time step continuity errors : sum local = 1.24073e-10, global = -2.04893e-11, cumulative = 5.88259e-08
DICPCG:  Solving for p, Initial residual = 1.03076e-06, Final residual = 6.98365e-07, No Iterations 1
time step continuity errors : sum local = 9.7143e-11, global = -2.06031e-11, cumulative = 5.88053e-08
ExecutionTime = 2901.14 s  ClockTime = 2904 s

Time = 99800

Courant Number mean: 0.0321282 max: 0.294187
smoothSolver:  Solving for Ux, Initial residual = 1.73593e-06, Final residual = 1.73593e-06, No Iterations 0
smoothSolver:  Solving for Uy, Initial residual = 1.72595e-06, Final residual = 1.72595e-06, No Iterations 0
smoothSolver:  Solving for Uz, Initial residual = 2.2146e-08, Final residual = 2.2146e-08, No Iterations 0
DICPCG:  Solving for p, Initial residual = 1.11972e-05, Final residual = 9.09362e-07, No Iterations 3
time step continuity errors : sum local = 1.26493e-10, global = -2.1382e-11, cumulative = 5.87839e-08
DICPCG:  Solving for p, Initial residual = 1.04838e-06, Final residual = 7.18136e-07, No Iterations 1
time step continuity errors : sum local = 9.98932e-11, global = -2.16242e-11, cumulative = 5.87623e-08
ExecutionTime = 2901.33 s  ClockTime = 2905 s

Time = 99825

Courant Number mean: 0.0321282 max: 0.294187
smoothSolver:  Solving for Ux, Initial residual = 1.73109e-06, Final residual = 1.73109e-06, No Iterations 0
smoothSolver:  Solving for Uy, Initial residual = 1.7207e-06, Final residual = 1.7207e-06, No Iterations 0
smoothSolver:  Solving for Uz, Initial residual = 2.19853e-08, Final residual = 2.19853e-08, No Iterations 0
DICPCG:  Solving for p, Initial residual = 1.12144e-05, Final residual = 9.22664e-07, No Iterations 3
time step continuity errors : sum local = 1.28343e-10, global = -2.22194e-11, cumulative = 5.87401e-08
DICPCG:  Solving for p, Initial residual = 1.06107e-06, Final residual = 7.28319e-07, No Iterations 1
time step continuity errors : sum local = 1.0131e-10, global = -2.23042e-11, cumulative = 5.87177e-08
ExecutionTime = 2901.54 s  ClockTime = 2905 s

Time = 99850

Courant Number mean: 0.0321282 max: 0.294187
smoothSolver:  Solving for Ux, Initial residual = 1.73115e-06, Final residual = 1.73115e-06, No Iterations 0
smoothSolver:  Solving for Uy, Initial residual = 1.7165e-06, Final residual = 1.7165e-06, No Iterations 0
smoothSolver:  Solving for Uz, Initial residual = 2.18375e-08, Final residual = 2.18375e-08, No Iterations 0
DICPCG:  Solving for p, Initial residual = 1.12172e-05, Final residual = 9.30207e-07, No Iterations 3
time step continuity errors : sum local = 1.29392e-10, global = -2.29333e-11, cumulative = 5.86948e-08
DICPCG:  Solving for p, Initial residual = 1.06883e-06, Final residual = 7.38011e-07, No Iterations 1
time step continuity errors : sum local = 1.02658e-10, global = -2.31448e-11, cumulative = 5.86717e-08
ExecutionTime = 2901.74 s  ClockTime = 2905 s

Time = 99875

Courant Number mean: 0.0321282 max: 0.294187
smoothSolver:  Solving for Ux, Initial residual = 1.72763e-06, Final residual = 1.72763e-06, No Iterations 0
smoothSolver:  Solving for Uy, Initial residual = 1.71049e-06, Final residual = 1.71049e-06, No Iterations 0
smoothSolver:  Solving for Uz, Initial residual = 2.1725e-08, Final residual = 2.1725e-08, No Iterations 0
DICPCG:  Solving for p, Initial residual = 1.12229e-05, Final residual = 9.29277e-07, No Iterations 3
time step continuity errors : sum local = 1.29263e-10, global = -2.35718e-11, cumulative = 5.86481e-08
DICPCG:  Solving for p, Initial residual = 1.06713e-06, Final residual = 7.34532e-07, No Iterations 1
time step continuity errors : sum local = 1.02174e-10, global = -2.36261e-11, cumulative = 5.86245e-08
ExecutionTime = 2901.93 s  ClockTime = 2905 s

Time = 99900

Courant Number mean: 0.0321282 max: 0.294187
smoothSolver:  Solving for Ux, Initial residual = 1.72562e-06, Final residual = 1.72562e-06, No Iterations 0
smoothSolver:  Solving for Uy, Initial residual = 1.70703e-06, Final residual = 1.70703e-06, No Iterations 0
smoothSolver:  Solving for Uz, Initial residual = 2.16842e-08, Final residual = 2.16842e-08, No Iterations 0
DICPCG:  Solving for p, Initial residual = 1.12119e-05, Final residual = 9.24769e-07, No Iterations 3
time step continuity errors : sum local = 1.28636e-10, global = -2.40817e-11, cumulative = 5.86004e-08
DICPCG:  Solving for p, Initial residual = 1.06301e-06, Final residual = 7.31636e-07, No Iterations 1
time step continuity errors : sum local = 1.01771e-10, global = -2.42648e-11, cumulative = 5.85761e-08
ExecutionTime = 2902.13 s  ClockTime = 2905 s

Time = 99925

Courant Number mean: 0.0321282 max: 0.294187
smoothSolver:  Solving for Ux, Initial residual = 1.72077e-06, Final residual = 1.72077e-06, No Iterations 0
smoothSolver:  Solving for Uy, Initial residual = 1.70414e-06, Final residual = 1.70414e-06, No Iterations 0
smoothSolver:  Solving for Uz, Initial residual = 2.1714e-08, Final residual = 2.1714e-08, No Iterations 0
DICPCG:  Solving for p, Initial residual = 1.12045e-05, Final residual = 9.09116e-07, No Iterations 3
time step continuity errors : sum local = 1.26459e-10, global = -2.45241e-11, cumulative = 5.85516e-08
DICPCG:  Solving for p, Initial residual = 1.04637e-06, Final residual = 7.14105e-07, No Iterations 1
time step continuity errors : sum local = 9.93325e-11, global = -2.45535e-11, cumulative = 5.8527e-08
ExecutionTime = 2902.34 s  ClockTime = 2906 s

Time = 99950

Courant Number mean: 0.0321282 max: 0.294187
smoothSolver:  Solving for Ux, Initial residual = 1.71813e-06, Final residual = 1.71813e-06, No Iterations 0
smoothSolver:  Solving for Uy, Initial residual = 1.7049e-06, Final residual = 1.7049e-06, No Iterations 0
smoothSolver:  Solving for Uz, Initial residual = 2.17437e-08, Final residual = 2.17437e-08, No Iterations 0
DICPCG:  Solving for p, Initial residual = 1.11765e-05, Final residual = 8.88353e-07, No Iterations 3
time step continuity errors : sum local = 1.23571e-10, global = -2.4856e-11, cumulative = 5.85022e-08
DICPCG:  Solving for p, Initial residual = 1.02604e-06, Final residual = 6.94852e-07, No Iterations 1
time step continuity errors : sum local = 9.66545e-11, global = -2.50187e-11, cumulative = 5.84772e-08
ExecutionTime = 2902.54 s  ClockTime = 2906 s

Time = 99975

Courant Number mean: 0.0321282 max: 0.294187
smoothSolver:  Solving for Ux, Initial residual = 1.71618e-06, Final residual = 1.71618e-06, No Iterations 0
smoothSolver:  Solving for Uy, Initial residual = 1.70603e-06, Final residual = 1.70603e-06, No Iterations 0
smoothSolver:  Solving for Uz, Initial residual = 2.17842e-08, Final residual = 2.17842e-08, No Iterations 0
DICPCG:  Solving for p, Initial residual = 1.11544e-05, Final residual = 8.57684e-07, No Iterations 3
time step continuity errors : sum local = 1.19304e-10, global = -2.51492e-11, cumulative = 5.8452e-08
DICPCG:  Solving for p, Initial residual = 9.9453e-07, Final residual = 9.9453e-07, No Iterations 0
time step continuity errors : sum local = 1.3834e-10, global = -2.52369e-11, cumulative = 5.84268e-08
ExecutionTime = 2902.73 s  ClockTime = 2906 s

Time = 100000

Courant Number mean: 0.0321282 max: 0.294187
smoothSolver:  Solving for Ux, Initial residual = 1.77498e-06, Final residual = 1.77498e-06, No Iterations 0
smoothSolver:  Solving for Uy, Initial residual = 1.76606e-06, Final residual = 1.76606e-06, No Iterations 0
smoothSolver:  Solving for Uz, Initial residual = 2.18607e-08, Final residual = 2.18607e-08, No Iterations 0
DICPCG:  Solving for p, Initial residual = 1.14545e-05, Final residual = 7.90318e-07, No Iterations 3
time step continuity errors : sum local = 1.09934e-10, global = -2.53829e-11, cumulative = 5.84014e-08
DICPCG:  Solving for p, Initial residual = 9.40995e-07, Final residual = 9.40995e-07, No Iterations 0
time step continuity errors : sum local = 1.30893e-10, global = -2.54791e-11, cumulative = 5.83759e-08
ExecutionTime = 2903.36 s  ClockTime = 2907 s

End

