/*---------------------------------------------------------------------------*\
| =========                 |                                                 |
| \\      /  F ield         | OpenFOAM: The Open Source CFD Toolbox           |
|  \\    /   O peration     | Version:  v2012                                 |
|   \\  /    A nd           | Website:  www.openfoam.com                      |
|    \\/     M anipulation  |                                                 |
\*---------------------------------------------------------------------------*/
Build  : _7bdb509494-20201222 OPENFOAM=2012
Arch   : "LSB;label=32;scalar=64"
Exec   : createPatch -overwrite
Date   : Dec 17 2021
Time   : 09:04:42
Host   : ziqipc
PID    : 11582
I/O    : uncollated
Case   : /home/tutle/GitHub_OpenFOAM/thin_pipeflow_snappyHexMesh/snappy_pipe
nProcs : 1
trapFpe: Floating point exception trapping enabled (FOAM_SIGFPE).
fileModificationChecking : Monitoring run-time modified files using timeStampMaster (fileModificationSkew 5, maxFileModificationPolls 20)
allowSystemOperations : Allowing user-supplied system call operations

// * * * * * * * * * * * * * * * * * * * * * * * * * * * * * * * * * * * * * //
Create time

Create polyMesh for time = 0

Reading "system/createPatchDict"

Patch 'toppatch' already exists.  Only moving patch faces - type will remain the same
Patch 'wall' already exists.  Only moving patch faces - type will remain the same
Patch 'bottompatch' already exists.  Only moving patch faces - type will remain the same

