/*---------------------------------------------------------------------------*\
| =========                 |                                                 |
| \\      /  F ield         | OpenFOAM: The Open Source CFD Toolbox           |
|  \\    /   O peration     | Version:  v2006                                 |
|   \\  /    A nd           | Website:  www.openfoam.com                      |
|    \\/     M anipulation  |                                                 |
\*---------------------------------------------------------------------------*/
Build  : v2006 OPENFOAM=2006
Arch   : "LSB;label=32;scalar=64"
Exec   : reconstructParMesh -constant -mergeTol 1E-06
Date   : Feb 23 2022
Time   : 15:30:52
Host   : fluid
PID    : 43474
I/O    : uncollated
Case   : /home/fluid/part2/wzq/GitHub_OpenFOAM/thin_pipeflow_snappyHexMesh/snappy_parallel_turb_pisoFoam_snappy_pipe
nProcs : 1
trapFpe: Floating point exception trapping enabled (FOAM_SIGFPE).
fileModificationChecking : Monitoring run-time modified files using timeStampMaster (fileModificationSkew 5, maxFileModificationPolls 20)
allowSystemOperations : Allowing user-supplied system call operations

// * * * * * * * * * * * * * * * * * * * * * * * * * * * * * * * * * * * * * //
Create time

This is an experimental tool which tries to merge individual processor
meshes back into one master mesh. Use it if the original master mesh has
been deleted or if the processor meshes have been modified (topology change).
This tool will write the resulting mesh to a new time step and construct
xxxxProcAddressing files in the processor meshes so reconstructPar can be
used to regenerate the fields on the master mesh.

Not well tested & use at your own risk!

Merge tolerance : 1e-06
Write tolerance : 1e-06
Doing geometric matching on correct procBoundaries only.
This assumes a correct decomposition.
Found 12 processor directories

Reading database "snappy_parallel_turb_pisoFoam_snappy_pipe/processor0"
Reading database "snappy_parallel_turb_pisoFoam_snappy_pipe/processor1"
Reading database "snappy_parallel_turb_pisoFoam_snappy_pipe/processor2"
Reading database "snappy_parallel_turb_pisoFoam_snappy_pipe/processor3"
Reading database "snappy_parallel_turb_pisoFoam_snappy_pipe/processor4"
Reading database "snappy_parallel_turb_pisoFoam_snappy_pipe/processor5"
Reading database "snappy_parallel_turb_pisoFoam_snappy_pipe/processor6"
Reading database "snappy_parallel_turb_pisoFoam_snappy_pipe/processor7"
Reading database "snappy_parallel_turb_pisoFoam_snappy_pipe/processor8"
Reading database "snappy_parallel_turb_pisoFoam_snappy_pipe/processor9"
Reading database "snappy_parallel_turb_pisoFoam_snappy_pipe/processor10"
Reading database "snappy_parallel_turb_pisoFoam_snappy_pipe/processor11"
Time = constant

Reading points from "snappy_parallel_turb_pisoFoam_snappy_pipe/processor0" for time = constant

Reading points from "snappy_parallel_turb_pisoFoam_snappy_pipe/processor1" for time = constant

Reading points from "snappy_parallel_turb_pisoFoam_snappy_pipe/processor2" for time = constant

Reading points from "snappy_parallel_turb_pisoFoam_snappy_pipe/processor3" for time = constant

Reading points from "snappy_parallel_turb_pisoFoam_snappy_pipe/processor4" for time = constant

Reading points from "snappy_parallel_turb_pisoFoam_snappy_pipe/processor5" for time = constant

Reading points from "snappy_parallel_turb_pisoFoam_snappy_pipe/processor6" for time = constant

Reading points from "snappy_parallel_turb_pisoFoam_snappy_pipe/processor7" for time = constant

Reading points from "snappy_parallel_turb_pisoFoam_snappy_pipe/processor8" for time = constant

Reading points from "snappy_parallel_turb_pisoFoam_snappy_pipe/processor9" for time = constant

Reading points from "snappy_parallel_turb_pisoFoam_snappy_pipe/processor10" for time = constant

Reading points from "snappy_parallel_turb_pisoFoam_snappy_pipe/processor11" for time = constant

Overall mesh bounding box  : (-0.5 -0.5 -1.90735e-06) (0.5 0.5 40)
Relative tolerance         : 1e-06
Absolute matching distance : 4.0025e-05

Merging mesh 0 with 1
Merging mesh 2 with 3
Merging mesh 4 with 5
Merging mesh 6 with 7
Merging mesh 8 with 9
Merging mesh 10 with 11
Merging mesh 0 with 2
Merging mesh 4 with 6
Merging mesh 8 with 10
Merging mesh 0 with 4
Merging mesh 0 with 8
Reading mesh to add from "snappy_parallel_turb_pisoFoam_snappy_pipe/processor0" for time = constant


Reading mesh to add from "snappy_parallel_turb_pisoFoam_snappy_pipe/processor1" for time = constant


Reading mesh to add from "snappy_parallel_turb_pisoFoam_snappy_pipe/processor2" for time = constant


Reading mesh to add from "snappy_parallel_turb_pisoFoam_snappy_pipe/processor3" for time = constant


Reading mesh to add from "snappy_parallel_turb_pisoFoam_snappy_pipe/processor4" for time = constant


Reading mesh to add from "snappy_parallel_turb_pisoFoam_snappy_pipe/processor5" for time = constant


Reading mesh to add from "snappy_parallel_turb_pisoFoam_snappy_pipe/processor6" for time = constant


Reading mesh to add from "snappy_parallel_turb_pisoFoam_snappy_pipe/processor7" for time = constant


Reading mesh to add from "snappy_parallel_turb_pisoFoam_snappy_pipe/processor8" for time = constant


Reading mesh to add from "snappy_parallel_turb_pisoFoam_snappy_pipe/processor9" for time = constant


Reading mesh to add from "snappy_parallel_turb_pisoFoam_snappy_pipe/processor10" for time = constant


Reading mesh to add from "snappy_parallel_turb_pisoFoam_snappy_pipe/processor11" for time = constant


mergeSharedPoints : detected 0 points that are to be merged.

Writing merged mesh to "/home/fluid/part2/wzq/GitHub_OpenFOAM/thin_pipeflow_snappyHexMesh/snappy_parallel_turb_pisoFoam_snappy_pipe/constant"

Reconstructing the addressing from the processor meshes to the newly reconstructed mesh

Reading processor 0 mesh from "snappy_parallel_turb_pisoFoam_snappy_pipe/processor0"
Writing pointProcAddressing to "snappy_parallel_turb_pisoFoam_snappy_pipe/processor0/constant/polyMesh"
Writing faceProcAddressing to "snappy_parallel_turb_pisoFoam_snappy_pipe/processor0/constant/polyMesh"
Writing cellProcAddressing to "snappy_parallel_turb_pisoFoam_snappy_pipe/processor0/constant/polyMesh"
Writing boundaryProcAddressing to "snappy_parallel_turb_pisoFoam_snappy_pipe/processor0/constant/polyMesh"

Reading processor 1 mesh from "snappy_parallel_turb_pisoFoam_snappy_pipe/processor1"
Writing pointProcAddressing to "snappy_parallel_turb_pisoFoam_snappy_pipe/processor1/constant/polyMesh"
Writing faceProcAddressing to "snappy_parallel_turb_pisoFoam_snappy_pipe/processor1/constant/polyMesh"
Writing cellProcAddressing to "snappy_parallel_turb_pisoFoam_snappy_pipe/processor1/constant/polyMesh"
Writing boundaryProcAddressing to "snappy_parallel_turb_pisoFoam_snappy_pipe/processor1/constant/polyMesh"

Reading processor 2 mesh from "snappy_parallel_turb_pisoFoam_snappy_pipe/processor2"
Writing pointProcAddressing to "snappy_parallel_turb_pisoFoam_snappy_pipe/processor2/constant/polyMesh"
Writing faceProcAddressing to "snappy_parallel_turb_pisoFoam_snappy_pipe/processor2/constant/polyMesh"
Writing cellProcAddressing to "snappy_parallel_turb_pisoFoam_snappy_pipe/processor2/constant/polyMesh"
Writing boundaryProcAddressing to "snappy_parallel_turb_pisoFoam_snappy_pipe/processor2/constant/polyMesh"

Reading processor 3 mesh from "snappy_parallel_turb_pisoFoam_snappy_pipe/processor3"
Writing pointProcAddressing to "snappy_parallel_turb_pisoFoam_snappy_pipe/processor3/constant/polyMesh"
Writing faceProcAddressing to "snappy_parallel_turb_pisoFoam_snappy_pipe/processor3/constant/polyMesh"
Writing cellProcAddressing to "snappy_parallel_turb_pisoFoam_snappy_pipe/processor3/constant/polyMesh"
Writing boundaryProcAddressing to "snappy_parallel_turb_pisoFoam_snappy_pipe/processor3/constant/polyMesh"

Reading processor 4 mesh from "snappy_parallel_turb_pisoFoam_snappy_pipe/processor4"
Writing pointProcAddressing to "snappy_parallel_turb_pisoFoam_snappy_pipe/processor4/constant/polyMesh"
Writing faceProcAddressing to "snappy_parallel_turb_pisoFoam_snappy_pipe/processor4/constant/polyMesh"
Writing cellProcAddressing to "snappy_parallel_turb_pisoFoam_snappy_pipe/processor4/constant/polyMesh"
Writing boundaryProcAddressing to "snappy_parallel_turb_pisoFoam_snappy_pipe/processor4/constant/polyMesh"

Reading processor 5 mesh from "snappy_parallel_turb_pisoFoam_snappy_pipe/processor5"
Writing pointProcAddressing to "snappy_parallel_turb_pisoFoam_snappy_pipe/processor5/constant/polyMesh"
Writing faceProcAddressing to "snappy_parallel_turb_pisoFoam_snappy_pipe/processor5/constant/polyMesh"
Writing cellProcAddressing to "snappy_parallel_turb_pisoFoam_snappy_pipe/processor5/constant/polyMesh"
Writing boundaryProcAddressing to "snappy_parallel_turb_pisoFoam_snappy_pipe/processor5/constant/polyMesh"

Reading processor 6 mesh from "snappy_parallel_turb_pisoFoam_snappy_pipe/processor6"
Writing pointProcAddressing to "snappy_parallel_turb_pisoFoam_snappy_pipe/processor6/constant/polyMesh"
Writing faceProcAddressing to "snappy_parallel_turb_pisoFoam_snappy_pipe/processor6/constant/polyMesh"
Writing cellProcAddressing to "snappy_parallel_turb_pisoFoam_snappy_pipe/processor6/constant/polyMesh"
Writing boundaryProcAddressing to "snappy_parallel_turb_pisoFoam_snappy_pipe/processor6/constant/polyMesh"

Reading processor 7 mesh from "snappy_parallel_turb_pisoFoam_snappy_pipe/processor7"
Writing pointProcAddressing to "snappy_parallel_turb_pisoFoam_snappy_pipe/processor7/constant/polyMesh"
Writing faceProcAddressing to "snappy_parallel_turb_pisoFoam_snappy_pipe/processor7/constant/polyMesh"
Writing cellProcAddressing to "snappy_parallel_turb_pisoFoam_snappy_pipe/processor7/constant/polyMesh"
Writing boundaryProcAddressing to "snappy_parallel_turb_pisoFoam_snappy_pipe/processor7/constant/polyMesh"

Reading processor 8 mesh from "snappy_parallel_turb_pisoFoam_snappy_pipe/processor8"
Writing pointProcAddressing to "snappy_parallel_turb_pisoFoam_snappy_pipe/processor8/constant/polyMesh"
Writing faceProcAddressing to "snappy_parallel_turb_pisoFoam_snappy_pipe/processor8/constant/polyMesh"
Writing cellProcAddressing to "snappy_parallel_turb_pisoFoam_snappy_pipe/processor8/constant/polyMesh"
Writing boundaryProcAddressing to "snappy_parallel_turb_pisoFoam_snappy_pipe/processor8/constant/polyMesh"

Reading processor 9 mesh from "snappy_parallel_turb_pisoFoam_snappy_pipe/processor9"
Writing pointProcAddressing to "snappy_parallel_turb_pisoFoam_snappy_pipe/processor9/constant/polyMesh"
Writing faceProcAddressing to "snappy_parallel_turb_pisoFoam_snappy_pipe/processor9/constant/polyMesh"
Writing cellProcAddressing to "snappy_parallel_turb_pisoFoam_snappy_pipe/processor9/constant/polyMesh"
Writing boundaryProcAddressing to "snappy_parallel_turb_pisoFoam_snappy_pipe/processor9/constant/polyMesh"

Reading processor 10 mesh from "snappy_parallel_turb_pisoFoam_snappy_pipe/processor10"
Writing pointProcAddressing to "snappy_parallel_turb_pisoFoam_snappy_pipe/processor10/constant/polyMesh"
Writing faceProcAddressing to "snappy_parallel_turb_pisoFoam_snappy_pipe/processor10/constant/polyMesh"
Writing cellProcAddressing to "snappy_parallel_turb_pisoFoam_snappy_pipe/processor10/constant/polyMesh"
Writing boundaryProcAddressing to "snappy_parallel_turb_pisoFoam_snappy_pipe/processor10/constant/polyMesh"

Reading processor 11 mesh from "snappy_parallel_turb_pisoFoam_snappy_pipe/processor11"
Writing pointProcAddressing to "snappy_parallel_turb_pisoFoam_snappy_pipe/processor11/constant/polyMesh"
Writing faceProcAddressing to "snappy_parallel_turb_pisoFoam_snappy_pipe/processor11/constant/polyMesh"
Writing cellProcAddressing to "snappy_parallel_turb_pisoFoam_snappy_pipe/processor11/constant/polyMesh"
Writing boundaryProcAddressing to "snappy_parallel_turb_pisoFoam_snappy_pipe/processor11/constant/polyMesh"


End

